WIDTH=8;
DEPTH=76800;
ADDRESS_RADIX=HEX;
DATA_RADIX=BIN;
CONTENT BEGIN
    0 : 11111111;
    1 : 11111111;
    2 : 11111111;
    3 : 11111111;
    4 : 11111111;
    5 : 11111111;
    6 : 11111111;
    7 : 11111111;
    8 : 11111111;
    9 : 11111111;
    A : 11111111;
    B : 11111111;
    C : 11111111;
    D : 11111111;
    E : 11111111;
    F : 11111111;
    10 : 11111111;
    11 : 11111111;
    12 : 11111111;
    13 : 11111111;
    14 : 11111111;
    15 : 11111111;
    16 : 11111111;
    17 : 11111111;
    18 : 11111111;
    19 : 11111111;
    1A : 11111111;
    1B : 11111111;
    1C : 11111111;
    1D : 11111111;
    1E : 11111111;
    1F : 11111111;
    20 : 11111111;
    21 : 11111111;
    22 : 11111111;
    23 : 11111111;
    24 : 11111111;
    25 : 11111111;
    26 : 11111111;
    27 : 11111111;
    28 : 11111111;
    29 : 11111111;
    2A : 11111111;
    2B : 11111111;
    2C : 11111111;
    2D : 11111111;
    2E : 11111111;
    2F : 11111111;
    30 : 11111111;
    31 : 11111111;
    32 : 11111111;
    33 : 11111111;
    34 : 11111111;
    35 : 11111111;
    36 : 11111111;
    37 : 11111111;
    38 : 11111111;
    39 : 11111111;
    3A : 11111111;
    3B : 11111111;
    3C : 11111111;
    3D : 11111111;
    3E : 11111111;
    3F : 11111111;
    40 : 11111111;
    41 : 11111111;
    42 : 11111111;
    43 : 11111111;
    44 : 11111111;
    45 : 11111111;
    46 : 11111111;
    47 : 11111111;
    48 : 11111111;
    49 : 11111111;
    4A : 11111111;
    4B : 11111111;
    4C : 11111111;
    4D : 11111111;
    4E : 11111111;
    4F : 11111111;
    50 : 11111111;
    51 : 11111111;
    52 : 11111111;
    53 : 11111111;
    54 : 11111111;
    55 : 11111111;
    56 : 11111111;
    57 : 11111111;
    58 : 11111111;
    59 : 11111111;
    5A : 11111111;
    5B : 11111111;
    5C : 11111111;
    5D : 11111111;
    5E : 11111111;
    5F : 11111111;
    60 : 11111111;
    61 : 11111111;
    62 : 11111111;
    63 : 11111111;
    64 : 11111111;
    65 : 11111111;
    66 : 11111111;
    67 : 11111111;
    68 : 11111111;
    69 : 11111111;
    6A : 11111111;
    6B : 11111111;
    6C : 11111111;
    6D : 11111111;
    6E : 11111111;
    6F : 11111111;
    70 : 11111111;
    71 : 11111111;
    72 : 11111111;
    73 : 11111111;
    74 : 11111111;
    75 : 11111111;
    76 : 11111111;
    77 : 11111111;
    78 : 11111111;
    79 : 11111111;
    7A : 11111111;
    7B : 11111111;
    7C : 11111111;
    7D : 11111111;
    7E : 11111111;
    7F : 11111111;
    80 : 11111111;
    81 : 11111111;
    82 : 11111111;
    83 : 11111111;
    84 : 11111111;
    85 : 11111111;
    86 : 11111111;
    87 : 11111111;
    88 : 11111111;
    89 : 11111111;
    8A : 11111111;
    8B : 11111111;
    8C : 11111111;
    8D : 11111111;
    8E : 11111111;
    8F : 11111111;
    90 : 11111111;
    91 : 11111111;
    92 : 11111111;
    93 : 11111111;
    94 : 11111111;
    95 : 11111111;
    96 : 11111111;
    97 : 11111111;
    98 : 11111111;
    99 : 11111111;
    9A : 11111111;
    9B : 11111111;
    9C : 11111111;
    9D : 11111111;
    9E : 11111111;
    9F : 11111111;
    A0 : 11111111;
    A1 : 11111111;
    A2 : 11111111;
    A3 : 11111111;
    A4 : 11111111;
    A5 : 11111111;
    A6 : 11111111;
    A7 : 11111111;
    A8 : 11111111;
    A9 : 11111111;
    AA : 11111111;
    AB : 11111111;
    AC : 11111111;
    AD : 11111111;
    AE : 11111111;
    AF : 11111111;
    B0 : 11111111;
    B1 : 11111111;
    B2 : 11111111;
    B3 : 11111111;
    B4 : 11111111;
    B5 : 11111111;
    B6 : 11111111;
    B7 : 11111111;
    B8 : 11111111;
    B9 : 11111111;
    BA : 11111111;
    BB : 11111111;
    BC : 11111111;
    BD : 11111111;
    BE : 11111111;
    BF : 11111111;
    C0 : 11111111;
    C1 : 11111111;
    C2 : 11111111;
    C3 : 11111111;
    C4 : 11111111;
    C5 : 11111111;
    C6 : 11111111;
    C7 : 11111111;
    C8 : 11111111;
    C9 : 11111111;
    CA : 11111111;
    CB : 11111111;
    CC : 11111111;
    CD : 11111111;
    CE : 11111111;
    CF : 11111111;
    D0 : 11111111;
    D1 : 11111111;
    D2 : 11111111;
    D3 : 11111111;
    D4 : 11111111;
    D5 : 11111111;
    D6 : 11111111;
    D7 : 11111111;
    D8 : 11111111;
    D9 : 11111111;
    DA : 11111111;
    DB : 11111111;
    DC : 11111111;
    DD : 11111111;
    DE : 11111111;
    DF : 11111111;
    E0 : 11111111;
    E1 : 11111111;
    E2 : 11111111;
    E3 : 11111111;
    E4 : 11111111;
    E5 : 11111111;
    E6 : 11111111;
    E7 : 11111111;
    E8 : 11111111;
    E9 : 11111111;
    EA : 11111111;
    EB : 11111111;
    EC : 11111111;
    ED : 11111111;
    EE : 11111111;
    EF : 11111111;
    F0 : 11111111;
    F1 : 11111111;
    F2 : 11111111;
    F3 : 11111111;
    F4 : 11111111;
    F5 : 11111111;
    F6 : 11111111;
    F7 : 11111111;
    F8 : 11111111;
    F9 : 11111111;
    FA : 11111111;
    FB : 11111111;
    FC : 11111111;
    FD : 11111111;
    FE : 11111111;
    FF : 11111111;
    100 : 11111111;
    101 : 11111111;
    102 : 11111111;
    103 : 11111111;
    104 : 11111111;
    105 : 11111111;
    106 : 11111111;
    107 : 11111111;
    108 : 11111111;
    109 : 11111111;
    10A : 11111111;
    10B : 11111111;
    10C : 11111111;
    10D : 11111111;
    10E : 11111111;
    10F : 11111111;
    110 : 11111111;
    111 : 11111111;
    112 : 11111111;
    113 : 11111111;
    114 : 11111111;
    115 : 11111111;
    116 : 11111111;
    117 : 11111111;
    118 : 11111111;
    119 : 11111111;
    11A : 11111111;
    11B : 11111111;
    11C : 11111111;
    11D : 11111111;
    11E : 11111111;
    11F : 11111111;
    120 : 11111111;
    121 : 11111111;
    122 : 11111111;
    123 : 11111111;
    124 : 11111111;
    125 : 11111111;
    126 : 11111111;
    127 : 11111111;
    128 : 11111111;
    129 : 11111111;
    12A : 11111111;
    12B : 11111111;
    12C : 11111111;
    12D : 11111111;
    12E : 11111111;
    12F : 11111111;
    130 : 11111111;
    131 : 11111111;
    132 : 11111111;
    133 : 11111111;
    134 : 11111111;
    135 : 11111111;
    136 : 11111111;
    137 : 11111111;
    138 : 11111111;
    139 : 11111111;
    13A : 11111111;
    13B : 11111111;
    13C : 11111111;
    13D : 11111111;
    13E : 11111111;
    13F : 11111111;
    140 : 11010110;
    141 : 11010111;
    142 : 11010110;
    143 : 11010101;
    144 : 11010110;
    145 : 11011000;
    146 : 11011010;
    147 : 11011101;
    148 : 11100001;
    149 : 11100010;
    14A : 11100011;
    14B : 11100110;
    14C : 11101000;
    14D : 11100111;
    14E : 11101001;
    14F : 11101000;
    150 : 11101001;
    151 : 11101000;
    152 : 11101000;
    153 : 11100111;
    154 : 11100110;
    155 : 11100100;
    156 : 11100001;
    157 : 11100000;
    158 : 11011101;
    159 : 11011100;
    15A : 11011101;
    15B : 11100000;
    15C : 11100010;
    15D : 11101000;
    15E : 11101101;
    15F : 11101110;
    160 : 11101111;
    161 : 11101111;
    162 : 11110000;
    163 : 11110001;
    164 : 11110001;
    165 : 11110001;
    166 : 11110001;
    167 : 11110010;
    168 : 11110010;
    169 : 11110010;
    16A : 11110010;
    16B : 11110010;
    16C : 11110010;
    16D : 11110010;
    16E : 11110010;
    16F : 11110010;
    170 : 11110010;
    171 : 11110010;
    172 : 11110010;
    173 : 11110010;
    174 : 11110010;
    175 : 11110010;
    176 : 11110001;
    177 : 11110010;
    178 : 11110010;
    179 : 11110010;
    17A : 11110001;
    17B : 11110000;
    17C : 11110000;
    17D : 11110000;
    17E : 11110000;
    17F : 11110000;
    180 : 11110000;
    181 : 11110001;
    182 : 11110000;
    183 : 11110000;
    184 : 11110000;
    185 : 11110000;
    186 : 11110000;
    187 : 11101111;
    188 : 11110000;
    189 : 11101111;
    18A : 11101111;
    18B : 11110000;
    18C : 11101111;
    18D : 11101110;
    18E : 11101110;
    18F : 11101101;
    190 : 11101100;
    191 : 11101100;
    192 : 11101011;
    193 : 11100111;
    194 : 11100001;
    195 : 11011110;
    196 : 11011011;
    197 : 11011001;
    198 : 11011010;
    199 : 11011001;
    19A : 11011011;
    19B : 11011011;
    19C : 11011100;
    19D : 11011011;
    19E : 11011011;
    19F : 11011001;
    1A0 : 11011000;
    1A1 : 11010111;
    1A2 : 11010110;
    1A3 : 11010110;
    1A4 : 11010101;
    1A5 : 11010110;
    1A6 : 11010101;
    1A7 : 11010110;
    1A8 : 11010110;
    1A9 : 11010110;
    1AA : 11010111;
    1AB : 11010111;
    1AC : 11010110;
    1AD : 11010111;
    1AE : 11010110;
    1AF : 11010110;
    1B0 : 11010110;
    1B1 : 11010110;
    1B2 : 11010110;
    1B3 : 11010111;
    1B4 : 11010111;
    1B5 : 11010111;
    1B6 : 11010111;
    1B7 : 11010111;
    1B8 : 11010111;
    1B9 : 11010111;
    1BA : 11010111;
    1BB : 11010111;
    1BC : 11010111;
    1BD : 11010111;
    1BE : 11010110;
    1BF : 11010111;
    1C0 : 11010111;
    1C1 : 11010111;
    1C2 : 11010110;
    1C3 : 11010110;
    1C4 : 11010110;
    1C5 : 11010110;
    1C6 : 11010111;
    1C7 : 11010110;
    1C8 : 11010110;
    1C9 : 11010110;
    1CA : 11010110;
    1CB : 11010111;
    1CC : 11010111;
    1CD : 11010111;
    1CE : 11010111;
    1CF : 11010111;
    1D0 : 11010111;
    1D1 : 11010110;
    1D2 : 11011000;
    1D3 : 11010110;
    1D4 : 11010111;
    1D5 : 11010111;
    1D6 : 11010110;
    1D7 : 11010111;
    1D8 : 11010111;
    1D9 : 11010110;
    1DA : 11010111;
    1DB : 11010111;
    1DC : 11010111;
    1DD : 11010111;
    1DE : 11010111;
    1DF : 11010111;
    1E0 : 11010110;
    1E1 : 11010111;
    1E2 : 11010111;
    1E3 : 11010111;
    1E4 : 11010111;
    1E5 : 11010111;
    1E6 : 11010111;
    1E7 : 11010111;
    1E8 : 11010111;
    1E9 : 11010111;
    1EA : 11010111;
    1EB : 11010111;
    1EC : 11010110;
    1ED : 11010111;
    1EE : 11010111;
    1EF : 11010111;
    1F0 : 11010111;
    1F1 : 11010111;
    1F2 : 11010111;
    1F3 : 11010111;
    1F4 : 11010111;
    1F5 : 11010111;
    1F6 : 11010111;
    1F7 : 11010111;
    1F8 : 11010111;
    1F9 : 11010111;
    1FA : 11010111;
    1FB : 11010111;
    1FC : 11010111;
    1FD : 11010111;
    1FE : 11010111;
    1FF : 11010111;
    200 : 11010111;
    201 : 11010111;
    202 : 11010111;
    203 : 11010111;
    204 : 11010111;
    205 : 11011000;
    206 : 11010111;
    207 : 11011000;
    208 : 11010111;
    209 : 11010111;
    20A : 11010111;
    20B : 11010111;
    20C : 11010111;
    20D : 11010111;
    20E : 11011000;
    20F : 11010111;
    210 : 11010111;
    211 : 11010111;
    212 : 11010111;
    213 : 11010111;
    214 : 11010111;
    215 : 11011000;
    216 : 11010111;
    217 : 11010111;
    218 : 11010111;
    219 : 11010111;
    21A : 11010111;
    21B : 11010111;
    21C : 11010111;
    21D : 11010111;
    21E : 11010111;
    21F : 11010111;
    220 : 11010111;
    221 : 11011000;
    222 : 11010111;
    223 : 11010111;
    224 : 11010111;
    225 : 11010111;
    226 : 11010110;
    227 : 11010111;
    228 : 11010110;
    229 : 11010111;
    22A : 11010111;
    22B : 11011000;
    22C : 11010111;
    22D : 11010111;
    22E : 11010111;
    22F : 11010111;
    230 : 11010111;
    231 : 11010111;
    232 : 11010110;
    233 : 11010110;
    234 : 11010111;
    235 : 11010111;
    236 : 11010111;
    237 : 11010111;
    238 : 11011000;
    239 : 11010111;
    23A : 11010111;
    23B : 11010111;
    23C : 11011000;
    23D : 11010110;
    23E : 11010111;
    23F : 11010111;
    240 : 11010110;
    241 : 11010111;
    242 : 11010111;
    243 : 11010111;
    244 : 11010111;
    245 : 11010111;
    246 : 11011000;
    247 : 11010110;
    248 : 11010111;
    249 : 11010111;
    24A : 11010111;
    24B : 11010111;
    24C : 11010111;
    24D : 11010111;
    24E : 11010111;
    24F : 11010111;
    250 : 11010111;
    251 : 11010111;
    252 : 11010111;
    253 : 11011000;
    254 : 11010111;
    255 : 11010111;
    256 : 11010111;
    257 : 11010110;
    258 : 11010110;
    259 : 11010111;
    25A : 11010111;
    25B : 11010111;
    25C : 11010110;
    25D : 11011000;
    25E : 11010110;
    25F : 11010111;
    260 : 11010111;
    261 : 11010111;
    262 : 11010111;
    263 : 11010111;
    264 : 11010111;
    265 : 11010111;
    266 : 11010111;
    267 : 11010111;
    268 : 11010111;
    269 : 11010111;
    26A : 11010111;
    26B : 11011000;
    26C : 11010111;
    26D : 11010111;
    26E : 11010111;
    26F : 11010111;
    270 : 11010111;
    271 : 11010110;
    272 : 11010110;
    273 : 11010111;
    274 : 11010111;
    275 : 11010111;
    276 : 11010111;
    277 : 11010111;
    278 : 11010111;
    279 : 11010111;
    27A : 11010110;
    27B : 11010111;
    27C : 11010111;
    27D : 11010111;
    27E : 11010111;
    27F : 11010111;
    280 : 11010101;
    281 : 11010110;
    282 : 11010111;
    283 : 11011000;
    284 : 11011100;
    285 : 11100000;
    286 : 11100100;
    287 : 11100110;
    288 : 11101000;
    289 : 11101001;
    28A : 11101011;
    28B : 11101011;
    28C : 11101100;
    28D : 11101101;
    28E : 11101101;
    28F : 11101100;
    290 : 11101101;
    291 : 11101110;
    292 : 11101101;
    293 : 11101101;
    294 : 11101100;
    295 : 11101100;
    296 : 11101010;
    297 : 11101000;
    298 : 11100110;
    299 : 11100101;
    29A : 11100110;
    29B : 11100110;
    29C : 11101011;
    29D : 11101101;
    29E : 11101111;
    29F : 11110000;
    2A0 : 11110001;
    2A1 : 11110001;
    2A2 : 11110000;
    2A3 : 11110001;
    2A4 : 11110010;
    2A5 : 11110010;
    2A6 : 11110010;
    2A7 : 11110010;
    2A8 : 11110010;
    2A9 : 11110010;
    2AA : 11110010;
    2AB : 11110010;
    2AC : 11110010;
    2AD : 11110010;
    2AE : 11110010;
    2AF : 11110010;
    2B0 : 11110010;
    2B1 : 11110010;
    2B2 : 11110010;
    2B3 : 11110010;
    2B4 : 11110001;
    2B5 : 11110001;
    2B6 : 11110001;
    2B7 : 11110010;
    2B8 : 11110011;
    2B9 : 11110001;
    2BA : 11110010;
    2BB : 11110010;
    2BC : 11110010;
    2BD : 11110010;
    2BE : 11110001;
    2BF : 11110001;
    2C0 : 11110001;
    2C1 : 11110001;
    2C2 : 11110001;
    2C3 : 11110000;
    2C4 : 11110000;
    2C5 : 11110000;
    2C6 : 11110000;
    2C7 : 11101111;
    2C8 : 11110000;
    2C9 : 11110000;
    2CA : 11110000;
    2CB : 11110000;
    2CC : 11110000;
    2CD : 11101111;
    2CE : 11101111;
    2CF : 11101111;
    2D0 : 11101110;
    2D1 : 11101110;
    2D2 : 11101101;
    2D3 : 11101100;
    2D4 : 11101001;
    2D5 : 11100101;
    2D6 : 11100100;
    2D7 : 11100011;
    2D8 : 11100011;
    2D9 : 11100011;
    2DA : 11100011;
    2DB : 11100100;
    2DC : 11100011;
    2DD : 11100010;
    2DE : 11100001;
    2DF : 11100001;
    2E0 : 11100000;
    2E1 : 11011110;
    2E2 : 11011010;
    2E3 : 11010111;
    2E4 : 11011000;
    2E5 : 11010110;
    2E6 : 11010101;
    2E7 : 11010101;
    2E8 : 11010101;
    2E9 : 11010101;
    2EA : 11010101;
    2EB : 11010110;
    2EC : 11010110;
    2ED : 11010110;
    2EE : 11010110;
    2EF : 11010110;
    2F0 : 11010110;
    2F1 : 11010110;
    2F2 : 11010111;
    2F3 : 11010111;
    2F4 : 11010111;
    2F5 : 11010111;
    2F6 : 11010111;
    2F7 : 11010111;
    2F8 : 11010111;
    2F9 : 11010111;
    2FA : 11010111;
    2FB : 11010111;
    2FC : 11010111;
    2FD : 11010111;
    2FE : 11010111;
    2FF : 11010111;
    300 : 11010111;
    301 : 11010111;
    302 : 11010111;
    303 : 11010111;
    304 : 11010111;
    305 : 11010111;
    306 : 11010111;
    307 : 11010111;
    308 : 11010111;
    309 : 11010111;
    30A : 11010101;
    30B : 11010111;
    30C : 11010110;
    30D : 11010110;
    30E : 11010111;
    30F : 11010111;
    310 : 11010111;
    311 : 11010111;
    312 : 11010110;
    313 : 11011000;
    314 : 11010110;
    315 : 11010110;
    316 : 11010111;
    317 : 11010111;
    318 : 11010111;
    319 : 11010111;
    31A : 11010111;
    31B : 11010110;
    31C : 11011000;
    31D : 11010111;
    31E : 11010111;
    31F : 11010111;
    320 : 11010110;
    321 : 11010110;
    322 : 11010111;
    323 : 11010111;
    324 : 11010111;
    325 : 11010111;
    326 : 11010111;
    327 : 11010111;
    328 : 11010111;
    329 : 11010111;
    32A : 11010111;
    32B : 11010111;
    32C : 11010110;
    32D : 11010111;
    32E : 11010111;
    32F : 11010111;
    330 : 11010111;
    331 : 11010111;
    332 : 11010110;
    333 : 11010111;
    334 : 11010111;
    335 : 11010111;
    336 : 11010111;
    337 : 11011000;
    338 : 11010111;
    339 : 11010111;
    33A : 11010111;
    33B : 11010111;
    33C : 11010111;
    33D : 11010111;
    33E : 11010111;
    33F : 11010111;
    340 : 11010111;
    341 : 11010111;
    342 : 11010111;
    343 : 11010111;
    344 : 11010111;
    345 : 11010111;
    346 : 11011000;
    347 : 11010111;
    348 : 11010111;
    349 : 11010111;
    34A : 11010110;
    34B : 11011000;
    34C : 11010110;
    34D : 11010110;
    34E : 11010110;
    34F : 11010111;
    350 : 11011000;
    351 : 11011000;
    352 : 11010111;
    353 : 11010111;
    354 : 11010111;
    355 : 11010111;
    356 : 11010111;
    357 : 11010111;
    358 : 11010111;
    359 : 11010111;
    35A : 11010111;
    35B : 11010111;
    35C : 11010111;
    35D : 11010111;
    35E : 11010111;
    35F : 11010111;
    360 : 11010111;
    361 : 11011000;
    362 : 11010111;
    363 : 11010111;
    364 : 11010111;
    365 : 11010111;
    366 : 11010111;
    367 : 11010111;
    368 : 11010111;
    369 : 11010111;
    36A : 11010111;
    36B : 11010111;
    36C : 11010111;
    36D : 11010110;
    36E : 11010111;
    36F : 11010111;
    370 : 11010111;
    371 : 11010111;
    372 : 11010111;
    373 : 11010111;
    374 : 11010110;
    375 : 11011000;
    376 : 11010111;
    377 : 11010111;
    378 : 11010111;
    379 : 11010111;
    37A : 11010111;
    37B : 11010110;
    37C : 11010111;
    37D : 11010111;
    37E : 11010111;
    37F : 11010111;
    380 : 11010111;
    381 : 11010111;
    382 : 11010111;
    383 : 11010111;
    384 : 11010111;
    385 : 11010111;
    386 : 11011000;
    387 : 11010111;
    388 : 11010111;
    389 : 11010111;
    38A : 11010111;
    38B : 11010111;
    38C : 11010111;
    38D : 11010111;
    38E : 11010111;
    38F : 11010111;
    390 : 11010111;
    391 : 11010111;
    392 : 11010111;
    393 : 11010110;
    394 : 11010111;
    395 : 11010111;
    396 : 11010110;
    397 : 11010111;
    398 : 11010111;
    399 : 11010111;
    39A : 11010111;
    39B : 11010111;
    39C : 11010111;
    39D : 11010111;
    39E : 11010111;
    39F : 11010111;
    3A0 : 11010111;
    3A1 : 11011000;
    3A2 : 11010110;
    3A3 : 11010111;
    3A4 : 11010111;
    3A5 : 11010110;
    3A6 : 11010111;
    3A7 : 11010111;
    3A8 : 11010111;
    3A9 : 11010111;
    3AA : 11010111;
    3AB : 11010110;
    3AC : 11010111;
    3AD : 11010111;
    3AE : 11010111;
    3AF : 11010111;
    3B0 : 11010111;
    3B1 : 11010110;
    3B2 : 11010111;
    3B3 : 11010111;
    3B4 : 11010110;
    3B5 : 11010111;
    3B6 : 11010111;
    3B7 : 11011000;
    3B8 : 11010111;
    3B9 : 11010111;
    3BA : 11010110;
    3BB : 11010111;
    3BC : 11010111;
    3BD : 11010111;
    3BE : 11010111;
    3BF : 11010111;
    3C0 : 11010110;
    3C1 : 11010111;
    3C2 : 11011001;
    3C3 : 11011111;
    3C4 : 11100011;
    3C5 : 11101000;
    3C6 : 11101000;
    3C7 : 11101001;
    3C8 : 11101010;
    3C9 : 11101100;
    3CA : 11101101;
    3CB : 11101110;
    3CC : 11101110;
    3CD : 11101110;
    3CE : 11101111;
    3CF : 11101111;
    3D0 : 11101111;
    3D1 : 11101111;
    3D2 : 11101111;
    3D3 : 11101110;
    3D4 : 11101110;
    3D5 : 11101111;
    3D6 : 11101101;
    3D7 : 11101100;
    3D8 : 11101101;
    3D9 : 11101100;
    3DA : 11101100;
    3DB : 11101110;
    3DC : 11101101;
    3DD : 11101111;
    3DE : 11110000;
    3DF : 11110001;
    3E0 : 11110001;
    3E1 : 11110001;
    3E2 : 11110010;
    3E3 : 11110010;
    3E4 : 11110010;
    3E5 : 11110010;
    3E6 : 11110010;
    3E7 : 11110010;
    3E8 : 11110010;
    3E9 : 11110010;
    3EA : 11110010;
    3EB : 11110010;
    3EC : 11110010;
    3ED : 11110010;
    3EE : 11110010;
    3EF : 11110010;
    3F0 : 11110010;
    3F1 : 11110010;
    3F2 : 11110010;
    3F3 : 11110010;
    3F4 : 11110010;
    3F5 : 11110010;
    3F6 : 11110010;
    3F7 : 11110010;
    3F8 : 11110010;
    3F9 : 11110001;
    3FA : 11110000;
    3FB : 11110001;
    3FC : 11110001;
    3FD : 11110001;
    3FE : 11110001;
    3FF : 11110010;
    400 : 11110010;
    401 : 11110010;
    402 : 11110010;
    403 : 11110001;
    404 : 11110001;
    405 : 11110000;
    406 : 11110000;
    407 : 11110000;
    408 : 11110000;
    409 : 11101111;
    40A : 11110000;
    40B : 11101111;
    40C : 11110000;
    40D : 11101111;
    40E : 11110000;
    40F : 11101111;
    410 : 11101111;
    411 : 11101111;
    412 : 11101101;
    413 : 11101101;
    414 : 11101011;
    415 : 11101010;
    416 : 11101000;
    417 : 11101000;
    418 : 11100111;
    419 : 11101000;
    41A : 11101001;
    41B : 11101001;
    41C : 11101000;
    41D : 11100110;
    41E : 11100110;
    41F : 11100101;
    420 : 11100100;
    421 : 11100011;
    422 : 11100010;
    423 : 11100001;
    424 : 11011101;
    425 : 11011000;
    426 : 11010111;
    427 : 11010110;
    428 : 11010101;
    429 : 11010101;
    42A : 11010101;
    42B : 11010101;
    42C : 11010110;
    42D : 11010110;
    42E : 11010110;
    42F : 11010111;
    430 : 11010111;
    431 : 11010111;
    432 : 11010111;
    433 : 11010111;
    434 : 11010111;
    435 : 11011000;
    436 : 11010111;
    437 : 11010111;
    438 : 11010111;
    439 : 11010110;
    43A : 11010111;
    43B : 11010111;
    43C : 11010111;
    43D : 11010111;
    43E : 11010111;
    43F : 11010111;
    440 : 11010111;
    441 : 11010111;
    442 : 11010111;
    443 : 11011000;
    444 : 11010111;
    445 : 11010111;
    446 : 11010110;
    447 : 11010110;
    448 : 11010111;
    449 : 11010110;
    44A : 11010110;
    44B : 11010111;
    44C : 11010111;
    44D : 11010110;
    44E : 11010110;
    44F : 11010110;
    450 : 11010110;
    451 : 11010110;
    452 : 11010110;
    453 : 11011000;
    454 : 11010110;
    455 : 11010110;
    456 : 11010111;
    457 : 11010110;
    458 : 11010111;
    459 : 11011000;
    45A : 11010110;
    45B : 11010110;
    45C : 11010111;
    45D : 11010110;
    45E : 11010110;
    45F : 11010111;
    460 : 11010111;
    461 : 11010111;
    462 : 11010110;
    463 : 11010111;
    464 : 11010111;
    465 : 11010111;
    466 : 11010111;
    467 : 11010110;
    468 : 11010111;
    469 : 11010110;
    46A : 11011000;
    46B : 11011000;
    46C : 11010110;
    46D : 11010111;
    46E : 11010111;
    46F : 11010110;
    470 : 11010110;
    471 : 11010110;
    472 : 11010110;
    473 : 11010110;
    474 : 11010111;
    475 : 11010111;
    476 : 11011000;
    477 : 11010111;
    478 : 11010111;
    479 : 11010110;
    47A : 11010111;
    47B : 11011000;
    47C : 11010111;
    47D : 11010111;
    47E : 11010110;
    47F : 11010111;
    480 : 11010111;
    481 : 11010111;
    482 : 11010111;
    483 : 11010110;
    484 : 11010110;
    485 : 11010111;
    486 : 11010111;
    487 : 11010111;
    488 : 11010110;
    489 : 11010110;
    48A : 11010110;
    48B : 11010110;
    48C : 11010110;
    48D : 11010111;
    48E : 11010110;
    48F : 11010110;
    490 : 11011000;
    491 : 11010110;
    492 : 11010101;
    493 : 11010110;
    494 : 11010111;
    495 : 11010111;
    496 : 11011000;
    497 : 11011000;
    498 : 11010111;
    499 : 11010111;
    49A : 11010110;
    49B : 11010110;
    49C : 11010110;
    49D : 11010110;
    49E : 11010110;
    49F : 11011000;
    4A0 : 11010111;
    4A1 : 11010110;
    4A2 : 11010110;
    4A3 : 11010110;
    4A4 : 11010110;
    4A5 : 11010101;
    4A6 : 11010110;
    4A7 : 11010110;
    4A8 : 11010111;
    4A9 : 11010111;
    4AA : 11010111;
    4AB : 11010110;
    4AC : 11010110;
    4AD : 11010110;
    4AE : 11010111;
    4AF : 11010110;
    4B0 : 11010111;
    4B1 : 11010110;
    4B2 : 11010110;
    4B3 : 11010110;
    4B4 : 11010111;
    4B5 : 11010111;
    4B6 : 11010110;
    4B7 : 11010101;
    4B8 : 11010110;
    4B9 : 11010110;
    4BA : 11011000;
    4BB : 11010111;
    4BC : 11010111;
    4BD : 11010110;
    4BE : 11010110;
    4BF : 11010111;
    4C0 : 11010110;
    4C1 : 11010110;
    4C2 : 11010111;
    4C3 : 11010111;
    4C4 : 11010110;
    4C5 : 11011000;
    4C6 : 11011000;
    4C7 : 11010111;
    4C8 : 11010111;
    4C9 : 11010111;
    4CA : 11010111;
    4CB : 11010110;
    4CC : 11010110;
    4CD : 11011000;
    4CE : 11010111;
    4CF : 11010111;
    4D0 : 11010110;
    4D1 : 11010111;
    4D2 : 11010110;
    4D3 : 11010110;
    4D4 : 11011000;
    4D5 : 11010110;
    4D6 : 11010101;
    4D7 : 11010110;
    4D8 : 11010111;
    4D9 : 11010111;
    4DA : 11010111;
    4DB : 11010111;
    4DC : 11010110;
    4DD : 11010110;
    4DE : 11010111;
    4DF : 11010111;
    4E0 : 11010111;
    4E1 : 11010111;
    4E2 : 11010111;
    4E3 : 11010111;
    4E4 : 11010110;
    4E5 : 11010110;
    4E6 : 11010110;
    4E7 : 11010110;
    4E8 : 11010111;
    4E9 : 11010111;
    4EA : 11010111;
    4EB : 11010111;
    4EC : 11010110;
    4ED : 11010110;
    4EE : 11010110;
    4EF : 11010111;
    4F0 : 11011000;
    4F1 : 11011000;
    4F2 : 11011000;
    4F3 : 11010111;
    4F4 : 11010111;
    4F5 : 11010111;
    4F6 : 11010111;
    4F7 : 11010111;
    4F8 : 11010111;
    4F9 : 11011000;
    4FA : 11010111;
    4FB : 11010111;
    4FC : 11010111;
    4FD : 11010111;
    4FE : 11010110;
    4FF : 11010110;
    500 : 11011001;
    501 : 11011110;
    502 : 11100001;
    503 : 11101000;
    504 : 11101001;
    505 : 11101011;
    506 : 11101100;
    507 : 11101101;
    508 : 11101101;
    509 : 11101110;
    50A : 11101101;
    50B : 11101110;
    50C : 11101111;
    50D : 11101111;
    50E : 11110000;
    50F : 11101111;
    510 : 11110000;
    511 : 11110000;
    512 : 11110000;
    513 : 11110000;
    514 : 11110000;
    515 : 11110000;
    516 : 11110000;
    517 : 11101111;
    518 : 11101111;
    519 : 11101111;
    51A : 11110000;
    51B : 11110000;
    51C : 11110000;
    51D : 11110000;
    51E : 11110001;
    51F : 11110010;
    520 : 11110010;
    521 : 11110001;
    522 : 11110010;
    523 : 11110010;
    524 : 11110010;
    525 : 11110010;
    526 : 11110010;
    527 : 11110010;
    528 : 11110010;
    529 : 11110010;
    52A : 11110010;
    52B : 11110010;
    52C : 11110010;
    52D : 11110010;
    52E : 11110010;
    52F : 11110010;
    530 : 11110010;
    531 : 11110010;
    532 : 11110010;
    533 : 11110010;
    534 : 11110010;
    535 : 11110010;
    536 : 11110010;
    537 : 11110010;
    538 : 11110010;
    539 : 11110010;
    53A : 11110000;
    53B : 11110000;
    53C : 11110000;
    53D : 11110001;
    53E : 11110010;
    53F : 11110001;
    540 : 11110010;
    541 : 11110010;
    542 : 11110010;
    543 : 11110010;
    544 : 11110001;
    545 : 11110000;
    546 : 11110000;
    547 : 11110000;
    548 : 11110000;
    549 : 11110000;
    54A : 11101111;
    54B : 11110000;
    54C : 11110000;
    54D : 11101111;
    54E : 11110000;
    54F : 11110000;
    550 : 11101111;
    551 : 11110000;
    552 : 11101110;
    553 : 11101101;
    554 : 11101110;
    555 : 11101101;
    556 : 11101100;
    557 : 11101100;
    558 : 11101011;
    559 : 11101011;
    55A : 11101010;
    55B : 11101010;
    55C : 11101010;
    55D : 11101001;
    55E : 11101001;
    55F : 11101000;
    560 : 11101000;
    561 : 11100101;
    562 : 11100110;
    563 : 11100101;
    564 : 11100011;
    565 : 11100000;
    566 : 11011010;
    567 : 11011000;
    568 : 11010110;
    569 : 11010100;
    56A : 11010101;
    56B : 11010100;
    56C : 11010101;
    56D : 11010110;
    56E : 11010110;
    56F : 11010111;
    570 : 11010111;
    571 : 11010111;
    572 : 11011000;
    573 : 11011000;
    574 : 11011000;
    575 : 11010111;
    576 : 11010111;
    577 : 11010111;
    578 : 11010111;
    579 : 11010111;
    57A : 11011000;
    57B : 11011000;
    57C : 11010111;
    57D : 11011000;
    57E : 11010111;
    57F : 11010111;
    580 : 11010111;
    581 : 11010111;
    582 : 11010111;
    583 : 11011000;
    584 : 11011000;
    585 : 11010111;
    586 : 11010111;
    587 : 11010111;
    588 : 11010111;
    589 : 11011000;
    58A : 11010111;
    58B : 11010111;
    58C : 11010111;
    58D : 11010110;
    58E : 11010110;
    58F : 11010110;
    590 : 11010110;
    591 : 11010110;
    592 : 11010110;
    593 : 11010111;
    594 : 11010110;
    595 : 11010110;
    596 : 11010110;
    597 : 11010111;
    598 : 11010111;
    599 : 11010111;
    59A : 11010111;
    59B : 11010111;
    59C : 11010110;
    59D : 11010110;
    59E : 11010111;
    59F : 11010111;
    5A0 : 11010111;
    5A1 : 11010110;
    5A2 : 11010111;
    5A3 : 11010111;
    5A4 : 11010111;
    5A5 : 11010110;
    5A6 : 11010110;
    5A7 : 11010110;
    5A8 : 11010111;
    5A9 : 11010110;
    5AA : 11010110;
    5AB : 11010110;
    5AC : 11010110;
    5AD : 11010111;
    5AE : 11010111;
    5AF : 11010110;
    5B0 : 11010110;
    5B1 : 11010110;
    5B2 : 11010110;
    5B3 : 11010110;
    5B4 : 11010110;
    5B5 : 11010110;
    5B6 : 11010111;
    5B7 : 11010110;
    5B8 : 11010110;
    5B9 : 11010110;
    5BA : 11010110;
    5BB : 11010110;
    5BC : 11010110;
    5BD : 11010111;
    5BE : 11010110;
    5BF : 11010110;
    5C0 : 11010111;
    5C1 : 11010110;
    5C2 : 11010110;
    5C3 : 11010110;
    5C4 : 11010110;
    5C5 : 11010110;
    5C6 : 11010111;
    5C7 : 11010111;
    5C8 : 11010110;
    5C9 : 11010110;
    5CA : 11010110;
    5CB : 11010110;
    5CC : 11010110;
    5CD : 11010111;
    5CE : 11010110;
    5CF : 11010110;
    5D0 : 11010110;
    5D1 : 11010110;
    5D2 : 11010110;
    5D3 : 11010111;
    5D4 : 11010111;
    5D5 : 11010111;
    5D6 : 11011000;
    5D7 : 11011000;
    5D8 : 11010111;
    5D9 : 11010110;
    5DA : 11010110;
    5DB : 11010110;
    5DC : 11010110;
    5DD : 11010110;
    5DE : 11010110;
    5DF : 11011000;
    5E0 : 11010111;
    5E1 : 11010110;
    5E2 : 11011000;
    5E3 : 11011000;
    5E4 : 11010110;
    5E5 : 11010110;
    5E6 : 11010110;
    5E7 : 11010110;
    5E8 : 11010111;
    5E9 : 11010110;
    5EA : 11010110;
    5EB : 11010111;
    5EC : 11010111;
    5ED : 11010110;
    5EE : 11010101;
    5EF : 11010111;
    5F0 : 11010111;
    5F1 : 11010110;
    5F2 : 11010110;
    5F3 : 11010111;
    5F4 : 11011000;
    5F5 : 11011000;
    5F6 : 11010111;
    5F7 : 11010111;
    5F8 : 11010110;
    5F9 : 11010110;
    5FA : 11010111;
    5FB : 11010111;
    5FC : 11010111;
    5FD : 11010110;
    5FE : 11010110;
    5FF : 11010101;
    600 : 11010110;
    601 : 11010110;
    602 : 11010110;
    603 : 11010111;
    604 : 11010110;
    605 : 11010111;
    606 : 11010111;
    607 : 11010111;
    608 : 11010110;
    609 : 11010110;
    60A : 11010110;
    60B : 11010110;
    60C : 11010110;
    60D : 11010110;
    60E : 11010110;
    60F : 11010110;
    610 : 11010110;
    611 : 11010110;
    612 : 11010101;
    613 : 11010110;
    614 : 11011000;
    615 : 11010111;
    616 : 11010111;
    617 : 11010110;
    618 : 11010110;
    619 : 11010110;
    61A : 11010111;
    61B : 11010111;
    61C : 11010111;
    61D : 11010110;
    61E : 11010110;
    61F : 11010111;
    620 : 11010110;
    621 : 11010110;
    622 : 11010110;
    623 : 11010111;
    624 : 11010110;
    625 : 11010110;
    626 : 11010110;
    627 : 11010110;
    628 : 11010110;
    629 : 11010111;
    62A : 11010110;
    62B : 11010110;
    62C : 11010110;
    62D : 11010110;
    62E : 11010111;
    62F : 11011000;
    630 : 11010110;
    631 : 11010110;
    632 : 11010110;
    633 : 11010111;
    634 : 11010111;
    635 : 11010110;
    636 : 11010111;
    637 : 11010110;
    638 : 11010111;
    639 : 11010111;
    63A : 11010111;
    63B : 11010110;
    63C : 11011001;
    63D : 11011000;
    63E : 11010110;
    63F : 11010110;
    640 : 11100011;
    641 : 11100110;
    642 : 11101001;
    643 : 11101100;
    644 : 11101100;
    645 : 11101110;
    646 : 11101110;
    647 : 11101110;
    648 : 11101111;
    649 : 11101111;
    64A : 11110000;
    64B : 11110000;
    64C : 11110001;
    64D : 11110001;
    64E : 11110001;
    64F : 11110001;
    650 : 11110001;
    651 : 11110000;
    652 : 11110000;
    653 : 11110001;
    654 : 11110010;
    655 : 11110010;
    656 : 11110010;
    657 : 11110001;
    658 : 11110001;
    659 : 11110001;
    65A : 11110001;
    65B : 11110001;
    65C : 11110001;
    65D : 11110001;
    65E : 11110010;
    65F : 11110010;
    660 : 11110011;
    661 : 11110001;
    662 : 11110001;
    663 : 11110001;
    664 : 11110010;
    665 : 11110010;
    666 : 11110010;
    667 : 11110010;
    668 : 11110010;
    669 : 11110010;
    66A : 11110010;
    66B : 11110010;
    66C : 11110010;
    66D : 11110010;
    66E : 11110010;
    66F : 11110010;
    670 : 11110010;
    671 : 11110010;
    672 : 11110010;
    673 : 11110010;
    674 : 11110010;
    675 : 11110010;
    676 : 11110010;
    677 : 11110010;
    678 : 11110010;
    679 : 11110010;
    67A : 11110010;
    67B : 11110001;
    67C : 11110001;
    67D : 11110001;
    67E : 11110010;
    67F : 11110010;
    680 : 11110001;
    681 : 11110010;
    682 : 11110010;
    683 : 11110010;
    684 : 11110001;
    685 : 11110010;
    686 : 11110010;
    687 : 11101111;
    688 : 11110000;
    689 : 11110000;
    68A : 11110001;
    68B : 11110000;
    68C : 11101111;
    68D : 11110000;
    68E : 11110000;
    68F : 11110000;
    690 : 11101111;
    691 : 11101111;
    692 : 11101110;
    693 : 11101110;
    694 : 11101111;
    695 : 11101111;
    696 : 11101111;
    697 : 11101111;
    698 : 11101110;
    699 : 11101101;
    69A : 11101100;
    69B : 11101011;
    69C : 11101011;
    69D : 11101010;
    69E : 11101010;
    69F : 11101010;
    6A0 : 11101001;
    6A1 : 11101001;
    6A2 : 11101001;
    6A3 : 11100110;
    6A4 : 11100111;
    6A5 : 11100101;
    6A6 : 11100100;
    6A7 : 11011111;
    6A8 : 11011010;
    6A9 : 11011000;
    6AA : 11010111;
    6AB : 11010100;
    6AC : 11010101;
    6AD : 11010101;
    6AE : 11010110;
    6AF : 11010110;
    6B0 : 11010111;
    6B1 : 11010111;
    6B2 : 11011000;
    6B3 : 11011000;
    6B4 : 11011000;
    6B5 : 11010111;
    6B6 : 11011000;
    6B7 : 11010111;
    6B8 : 11010111;
    6B9 : 11010111;
    6BA : 11011000;
    6BB : 11011000;
    6BC : 11011000;
    6BD : 11010111;
    6BE : 11011001;
    6BF : 11010111;
    6C0 : 11010111;
    6C1 : 11011000;
    6C2 : 11010111;
    6C3 : 11011000;
    6C4 : 11011000;
    6C5 : 11010111;
    6C6 : 11010111;
    6C7 : 11010111;
    6C8 : 11011000;
    6C9 : 11010101;
    6CA : 11010111;
    6CB : 11010111;
    6CC : 11010110;
    6CD : 11010110;
    6CE : 11010110;
    6CF : 11010110;
    6D0 : 11010110;
    6D1 : 11010110;
    6D2 : 11010111;
    6D3 : 11010110;
    6D4 : 11010110;
    6D5 : 11010110;
    6D6 : 11010110;
    6D7 : 11010110;
    6D8 : 11010110;
    6D9 : 11010111;
    6DA : 11010111;
    6DB : 11010110;
    6DC : 11010111;
    6DD : 11010111;
    6DE : 11010110;
    6DF : 11010110;
    6E0 : 11010110;
    6E1 : 11010110;
    6E2 : 11010110;
    6E3 : 11010110;
    6E4 : 11010110;
    6E5 : 11010110;
    6E6 : 11010110;
    6E7 : 11010101;
    6E8 : 11010110;
    6E9 : 11010110;
    6EA : 11010110;
    6EB : 11010110;
    6EC : 11010110;
    6ED : 11010110;
    6EE : 11010110;
    6EF : 11010110;
    6F0 : 11010110;
    6F1 : 11010110;
    6F2 : 11010110;
    6F3 : 11010110;
    6F4 : 11010110;
    6F5 : 11010110;
    6F6 : 11010101;
    6F7 : 11010101;
    6F8 : 11010110;
    6F9 : 11010101;
    6FA : 11010110;
    6FB : 11010110;
    6FC : 11010110;
    6FD : 11010101;
    6FE : 11010110;
    6FF : 11010110;
    700 : 11010110;
    701 : 11010110;
    702 : 11010110;
    703 : 11010110;
    704 : 11010110;
    705 : 11010110;
    706 : 11010110;
    707 : 11010110;
    708 : 11010110;
    709 : 11010110;
    70A : 11010110;
    70B : 11010110;
    70C : 11010101;
    70D : 11010101;
    70E : 11010110;
    70F : 11010110;
    710 : 11010110;
    711 : 11010110;
    712 : 11010110;
    713 : 11010111;
    714 : 11010110;
    715 : 11010110;
    716 : 11010110;
    717 : 11010101;
    718 : 11010110;
    719 : 11010110;
    71A : 11010110;
    71B : 11010110;
    71C : 11010110;
    71D : 11010110;
    71E : 11010110;
    71F : 11010110;
    720 : 11010110;
    721 : 11010110;
    722 : 11010110;
    723 : 11010110;
    724 : 11010110;
    725 : 11010110;
    726 : 11010110;
    727 : 11010110;
    728 : 11010110;
    729 : 11010110;
    72A : 11010101;
    72B : 11010111;
    72C : 11010110;
    72D : 11010110;
    72E : 11010110;
    72F : 11010101;
    730 : 11010101;
    731 : 11010110;
    732 : 11010101;
    733 : 11010101;
    734 : 11010110;
    735 : 11010110;
    736 : 11010110;
    737 : 11010101;
    738 : 11010110;
    739 : 11010101;
    73A : 11010110;
    73B : 11010110;
    73C : 11010110;
    73D : 11010110;
    73E : 11010110;
    73F : 11010110;
    740 : 11010110;
    741 : 11010110;
    742 : 11010110;
    743 : 11010110;
    744 : 11010101;
    745 : 11010110;
    746 : 11010110;
    747 : 11010110;
    748 : 11010110;
    749 : 11010110;
    74A : 11010110;
    74B : 11010110;
    74C : 11010110;
    74D : 11010110;
    74E : 11010110;
    74F : 11010101;
    750 : 11010110;
    751 : 11010101;
    752 : 11010101;
    753 : 11010110;
    754 : 11010110;
    755 : 11010110;
    756 : 11010101;
    757 : 11010110;
    758 : 11010110;
    759 : 11010110;
    75A : 11010110;
    75B : 11010110;
    75C : 11010101;
    75D : 11010110;
    75E : 11010101;
    75F : 11010110;
    760 : 11010110;
    761 : 11010101;
    762 : 11010101;
    763 : 11010110;
    764 : 11010110;
    765 : 11010110;
    766 : 11010100;
    767 : 11010110;
    768 : 11010110;
    769 : 11010110;
    76A : 11010110;
    76B : 11010110;
    76C : 11010110;
    76D : 11010110;
    76E : 11010110;
    76F : 11010110;
    770 : 11010110;
    771 : 11010110;
    772 : 11010110;
    773 : 11010110;
    774 : 11010110;
    775 : 11010110;
    776 : 11010110;
    777 : 11010110;
    778 : 11010101;
    779 : 11010110;
    77A : 11010110;
    77B : 11010110;
    77C : 11010110;
    77D : 11010110;
    77E : 11010110;
    77F : 11010110;
    780 : 11101001;
    781 : 11101010;
    782 : 11101101;
    783 : 11101110;
    784 : 11101110;
    785 : 11101110;
    786 : 11101111;
    787 : 11110000;
    788 : 11110000;
    789 : 11110000;
    78A : 11110001;
    78B : 11110000;
    78C : 11110001;
    78D : 11110001;
    78E : 11110001;
    78F : 11110010;
    790 : 11110010;
    791 : 11110010;
    792 : 11110001;
    793 : 11110010;
    794 : 11110010;
    795 : 11110010;
    796 : 11110010;
    797 : 11110001;
    798 : 11110001;
    799 : 11110001;
    79A : 11110001;
    79B : 11110001;
    79C : 11110010;
    79D : 11110010;
    79E : 11110010;
    79F : 11110010;
    7A0 : 11110011;
    7A1 : 11110001;
    7A2 : 11110001;
    7A3 : 11110001;
    7A4 : 11110010;
    7A5 : 11110010;
    7A6 : 11110001;
    7A7 : 11110010;
    7A8 : 11110010;
    7A9 : 11110010;
    7AA : 11110010;
    7AB : 11110010;
    7AC : 11110010;
    7AD : 11110010;
    7AE : 11110010;
    7AF : 11110010;
    7B0 : 11110010;
    7B1 : 11110010;
    7B2 : 11110000;
    7B3 : 11110010;
    7B4 : 11110010;
    7B5 : 11110010;
    7B6 : 11110010;
    7B7 : 11110010;
    7B8 : 11110010;
    7B9 : 11110010;
    7BA : 11110010;
    7BB : 11110000;
    7BC : 11110001;
    7BD : 11110001;
    7BE : 11110001;
    7BF : 11110010;
    7C0 : 11110001;
    7C1 : 11110001;
    7C2 : 11110001;
    7C3 : 11110001;
    7C4 : 11110001;
    7C5 : 11110001;
    7C6 : 11110010;
    7C7 : 11110000;
    7C8 : 11110000;
    7C9 : 11110000;
    7CA : 11110000;
    7CB : 11110000;
    7CC : 11110000;
    7CD : 11110000;
    7CE : 11110000;
    7CF : 11110000;
    7D0 : 11101111;
    7D1 : 11101111;
    7D2 : 11101111;
    7D3 : 11101110;
    7D4 : 11101110;
    7D5 : 11101111;
    7D6 : 11101110;
    7D7 : 11101110;
    7D8 : 11110000;
    7D9 : 11101111;
    7DA : 11101100;
    7DB : 11101100;
    7DC : 11101100;
    7DD : 11101011;
    7DE : 11101011;
    7DF : 11101100;
    7E0 : 11101011;
    7E1 : 11101010;
    7E2 : 11101001;
    7E3 : 11101001;
    7E4 : 11101000;
    7E5 : 11100111;
    7E6 : 11100101;
    7E7 : 11100100;
    7E8 : 11100000;
    7E9 : 11011100;
    7EA : 11011010;
    7EB : 11010111;
    7EC : 11010101;
    7ED : 11010100;
    7EE : 11010101;
    7EF : 11010101;
    7F0 : 11010110;
    7F1 : 11010111;
    7F2 : 11011000;
    7F3 : 11011000;
    7F4 : 11010110;
    7F5 : 11010111;
    7F6 : 11010111;
    7F7 : 11010111;
    7F8 : 11010111;
    7F9 : 11010111;
    7FA : 11010111;
    7FB : 11010111;
    7FC : 11010111;
    7FD : 11010111;
    7FE : 11010111;
    7FF : 11011000;
    800 : 11010111;
    801 : 11010111;
    802 : 11010111;
    803 : 11010111;
    804 : 11011000;
    805 : 11010111;
    806 : 11010111;
    807 : 11010111;
    808 : 11010111;
    809 : 11010111;
    80A : 11010111;
    80B : 11010111;
    80C : 11011000;
    80D : 11010111;
    80E : 11010110;
    80F : 11010111;
    810 : 11010110;
    811 : 11010110;
    812 : 11010111;
    813 : 11010110;
    814 : 11010110;
    815 : 11010110;
    816 : 11010101;
    817 : 11010110;
    818 : 11010111;
    819 : 11010110;
    81A : 11010110;
    81B : 11010110;
    81C : 11010110;
    81D : 11010110;
    81E : 11010110;
    81F : 11010110;
    820 : 11010101;
    821 : 11010110;
    822 : 11010110;
    823 : 11010110;
    824 : 11010110;
    825 : 11010110;
    826 : 11010110;
    827 : 11010100;
    828 : 11010110;
    829 : 11010110;
    82A : 11010110;
    82B : 11010101;
    82C : 11010110;
    82D : 11010110;
    82E : 11010110;
    82F : 11010110;
    830 : 11010110;
    831 : 11010110;
    832 : 11010110;
    833 : 11010110;
    834 : 11010101;
    835 : 11010101;
    836 : 11010110;
    837 : 11010101;
    838 : 11010101;
    839 : 11010101;
    83A : 11010101;
    83B : 11010110;
    83C : 11010100;
    83D : 11010110;
    83E : 11010110;
    83F : 11010101;
    840 : 11010110;
    841 : 11010110;
    842 : 11010110;
    843 : 11010110;
    844 : 11010110;
    845 : 11010110;
    846 : 11010101;
    847 : 11010110;
    848 : 11010110;
    849 : 11010110;
    84A : 11010110;
    84B : 11010110;
    84C : 11010110;
    84D : 11010100;
    84E : 11010110;
    84F : 11010101;
    850 : 11010101;
    851 : 11010110;
    852 : 11010101;
    853 : 11010110;
    854 : 11010110;
    855 : 11010110;
    856 : 11010110;
    857 : 11010100;
    858 : 11010110;
    859 : 11010110;
    85A : 11010101;
    85B : 11010101;
    85C : 11010101;
    85D : 11010101;
    85E : 11010101;
    85F : 11010111;
    860 : 11010111;
    861 : 11010111;
    862 : 11010101;
    863 : 11010101;
    864 : 11010110;
    865 : 11010110;
    866 : 11010110;
    867 : 11010110;
    868 : 11010110;
    869 : 11010110;
    86A : 11010110;
    86B : 11010100;
    86C : 11010110;
    86D : 11010101;
    86E : 11010101;
    86F : 11010101;
    870 : 11010101;
    871 : 11010110;
    872 : 11010101;
    873 : 11010110;
    874 : 11010110;
    875 : 11010110;
    876 : 11010101;
    877 : 11010101;
    878 : 11010101;
    879 : 11010101;
    87A : 11010100;
    87B : 11010101;
    87C : 11010110;
    87D : 11010101;
    87E : 11010101;
    87F : 11010101;
    880 : 11010110;
    881 : 11010110;
    882 : 11010101;
    883 : 11010101;
    884 : 11010101;
    885 : 11010101;
    886 : 11010101;
    887 : 11010100;
    888 : 11010110;
    889 : 11010110;
    88A : 11010101;
    88B : 11010101;
    88C : 11010101;
    88D : 11010101;
    88E : 11010101;
    88F : 11010101;
    890 : 11010110;
    891 : 11010100;
    892 : 11010101;
    893 : 11010101;
    894 : 11010101;
    895 : 11010101;
    896 : 11010101;
    897 : 11010101;
    898 : 11010110;
    899 : 11010110;
    89A : 11010110;
    89B : 11010110;
    89C : 11010110;
    89D : 11010110;
    89E : 11010101;
    89F : 11010110;
    8A0 : 11010101;
    8A1 : 11010100;
    8A2 : 11010101;
    8A3 : 11010101;
    8A4 : 11010110;
    8A5 : 11010110;
    8A6 : 11010101;
    8A7 : 11010110;
    8A8 : 11010110;
    8A9 : 11010101;
    8AA : 11010100;
    8AB : 11010101;
    8AC : 11010110;
    8AD : 11010110;
    8AE : 11010110;
    8AF : 11010110;
    8B0 : 11010101;
    8B1 : 11010101;
    8B2 : 11010110;
    8B3 : 11010110;
    8B4 : 11010110;
    8B5 : 11010110;
    8B6 : 11010110;
    8B7 : 11010110;
    8B8 : 11010101;
    8B9 : 11010101;
    8BA : 11010101;
    8BB : 11010101;
    8BC : 11010110;
    8BD : 11010110;
    8BE : 11010110;
    8BF : 11010110;
    8C0 : 11101011;
    8C1 : 11101101;
    8C2 : 11101101;
    8C3 : 11101110;
    8C4 : 11101111;
    8C5 : 11110000;
    8C6 : 11110000;
    8C7 : 11110000;
    8C8 : 11110000;
    8C9 : 11110000;
    8CA : 11110000;
    8CB : 11110000;
    8CC : 11110000;
    8CD : 11101111;
    8CE : 11101111;
    8CF : 11110000;
    8D0 : 11101111;
    8D1 : 11110000;
    8D2 : 11110000;
    8D3 : 11110000;
    8D4 : 11110001;
    8D5 : 11110001;
    8D6 : 11110010;
    8D7 : 11110010;
    8D8 : 11110001;
    8D9 : 11110001;
    8DA : 11110001;
    8DB : 11110001;
    8DC : 11110001;
    8DD : 11110010;
    8DE : 11110010;
    8DF : 11110010;
    8E0 : 11110010;
    8E1 : 11110000;
    8E2 : 11110000;
    8E3 : 11110000;
    8E4 : 11110000;
    8E5 : 11110000;
    8E6 : 11110001;
    8E7 : 11110001;
    8E8 : 11110001;
    8E9 : 11110010;
    8EA : 11110010;
    8EB : 11110010;
    8EC : 11110010;
    8ED : 11110010;
    8EE : 11110010;
    8EF : 11110010;
    8F0 : 11110010;
    8F1 : 11110001;
    8F2 : 11110010;
    8F3 : 11110010;
    8F4 : 11110010;
    8F5 : 11110001;
    8F6 : 11110001;
    8F7 : 11110001;
    8F8 : 11110001;
    8F9 : 11110010;
    8FA : 11110010;
    8FB : 11110010;
    8FC : 11110010;
    8FD : 11110010;
    8FE : 11110001;
    8FF : 11110010;
    900 : 11110001;
    901 : 11110000;
    902 : 11110000;
    903 : 11110000;
    904 : 11110000;
    905 : 11110000;
    906 : 11110001;
    907 : 11110000;
    908 : 11101111;
    909 : 11101111;
    90A : 11101111;
    90B : 11101111;
    90C : 11101111;
    90D : 11101111;
    90E : 11101111;
    90F : 11101111;
    910 : 11101111;
    911 : 11101111;
    912 : 11110000;
    913 : 11110000;
    914 : 11101111;
    915 : 11110000;
    916 : 11101111;
    917 : 11101110;
    918 : 11101110;
    919 : 11101110;
    91A : 11101100;
    91B : 11101100;
    91C : 11101100;
    91D : 11101100;
    91E : 11101100;
    91F : 11101011;
    920 : 11101011;
    921 : 11101010;
    922 : 11101001;
    923 : 11101000;
    924 : 11101000;
    925 : 11101000;
    926 : 11100110;
    927 : 11100101;
    928 : 11100010;
    929 : 11100000;
    92A : 11011110;
    92B : 11011011;
    92C : 11011001;
    92D : 11010110;
    92E : 11010101;
    92F : 11010101;
    930 : 11010110;
    931 : 11010110;
    932 : 11010110;
    933 : 11010111;
    934 : 11010111;
    935 : 11010111;
    936 : 11010111;
    937 : 11010111;
    938 : 11011000;
    939 : 11011000;
    93A : 11011000;
    93B : 11011000;
    93C : 11011000;
    93D : 11011000;
    93E : 11011000;
    93F : 11010111;
    940 : 11011000;
    941 : 11010111;
    942 : 11010111;
    943 : 11010111;
    944 : 11010111;
    945 : 11010111;
    946 : 11010111;
    947 : 11010111;
    948 : 11010111;
    949 : 11010111;
    94A : 11011000;
    94B : 11010111;
    94C : 11010111;
    94D : 11010111;
    94E : 11010111;
    94F : 11010111;
    950 : 11010111;
    951 : 11010111;
    952 : 11010111;
    953 : 11010110;
    954 : 11010110;
    955 : 11010110;
    956 : 11010110;
    957 : 11010110;
    958 : 11010110;
    959 : 11010110;
    95A : 11010110;
    95B : 11010111;
    95C : 11010110;
    95D : 11010111;
    95E : 11010111;
    95F : 11010111;
    960 : 11010110;
    961 : 11010110;
    962 : 11010101;
    963 : 11010110;
    964 : 11010110;
    965 : 11010110;
    966 : 11010110;
    967 : 11010110;
    968 : 11010101;
    969 : 11010101;
    96A : 11010101;
    96B : 11010110;
    96C : 11010101;
    96D : 11010110;
    96E : 11010110;
    96F : 11010110;
    970 : 11010101;
    971 : 11010110;
    972 : 11010101;
    973 : 11010101;
    974 : 11010110;
    975 : 11010110;
    976 : 11010110;
    977 : 11010110;
    978 : 11010101;
    979 : 11010110;
    97A : 11010110;
    97B : 11010100;
    97C : 11010101;
    97D : 11010101;
    97E : 11010101;
    97F : 11010100;
    980 : 11010101;
    981 : 11010111;
    982 : 11010110;
    983 : 11010110;
    984 : 11010110;
    985 : 11010110;
    986 : 11010110;
    987 : 11010100;
    988 : 11010101;
    989 : 11010101;
    98A : 11010101;
    98B : 11010101;
    98C : 11010101;
    98D : 11010110;
    98E : 11010110;
    98F : 11010101;
    990 : 11010110;
    991 : 11010110;
    992 : 11010101;
    993 : 11010101;
    994 : 11010110;
    995 : 11010101;
    996 : 11010101;
    997 : 11010110;
    998 : 11010110;
    999 : 11010101;
    99A : 11010110;
    99B : 11010110;
    99C : 11010110;
    99D : 11010101;
    99E : 11011000;
    99F : 11011001;
    9A0 : 11011000;
    9A1 : 11010110;
    9A2 : 11010101;
    9A3 : 11010110;
    9A4 : 11010110;
    9A5 : 11010110;
    9A6 : 11010110;
    9A7 : 11010101;
    9A8 : 11010110;
    9A9 : 11010110;
    9AA : 11010101;
    9AB : 11010101;
    9AC : 11010110;
    9AD : 11010101;
    9AE : 11010110;
    9AF : 11010101;
    9B0 : 11010110;
    9B1 : 11010101;
    9B2 : 11010100;
    9B3 : 11010100;
    9B4 : 11010110;
    9B5 : 11010110;
    9B6 : 11010110;
    9B7 : 11010101;
    9B8 : 11010110;
    9B9 : 11010101;
    9BA : 11010110;
    9BB : 11010110;
    9BC : 11010101;
    9BD : 11010101;
    9BE : 11010101;
    9BF : 11010101;
    9C0 : 11010101;
    9C1 : 11010110;
    9C2 : 11010110;
    9C3 : 11010110;
    9C4 : 11010100;
    9C5 : 11010101;
    9C6 : 11010110;
    9C7 : 11010101;
    9C8 : 11010110;
    9C9 : 11010110;
    9CA : 11010101;
    9CB : 11010110;
    9CC : 11010101;
    9CD : 11010101;
    9CE : 11010101;
    9CF : 11010101;
    9D0 : 11010110;
    9D1 : 11010101;
    9D2 : 11010101;
    9D3 : 11010101;
    9D4 : 11010110;
    9D5 : 11010101;
    9D6 : 11010110;
    9D7 : 11010101;
    9D8 : 11010101;
    9D9 : 11010101;
    9DA : 11010110;
    9DB : 11010110;
    9DC : 11010110;
    9DD : 11010110;
    9DE : 11010110;
    9DF : 11010110;
    9E0 : 11010110;
    9E1 : 11010110;
    9E2 : 11010101;
    9E3 : 11010110;
    9E4 : 11010101;
    9E5 : 11010101;
    9E6 : 11010110;
    9E7 : 11010110;
    9E8 : 11010110;
    9E9 : 11010101;
    9EA : 11010101;
    9EB : 11010110;
    9EC : 11010101;
    9ED : 11010101;
    9EE : 11010110;
    9EF : 11010101;
    9F0 : 11010100;
    9F1 : 11010101;
    9F2 : 11010101;
    9F3 : 11010110;
    9F4 : 11010110;
    9F5 : 11010110;
    9F6 : 11010101;
    9F7 : 11010110;
    9F8 : 11010110;
    9F9 : 11010110;
    9FA : 11010110;
    9FB : 11010110;
    9FC : 11010101;
    9FD : 11010101;
    9FE : 11010110;
    9FF : 11010100;
    A00 : 11101101;
    A01 : 11101101;
    A02 : 11101110;
    A03 : 11110000;
    A04 : 11110000;
    A05 : 11101111;
    A06 : 11110000;
    A07 : 11110000;
    A08 : 11110000;
    A09 : 11110000;
    A0A : 11101111;
    A0B : 11101111;
    A0C : 11101111;
    A0D : 11101111;
    A0E : 11101111;
    A0F : 11101111;
    A10 : 11101111;
    A11 : 11101111;
    A12 : 11101110;
    A13 : 11110001;
    A14 : 11110010;
    A15 : 11110001;
    A16 : 11110001;
    A17 : 11110010;
    A18 : 11110010;
    A19 : 11110010;
    A1A : 11110001;
    A1B : 11110010;
    A1C : 11110010;
    A1D : 11110010;
    A1E : 11110001;
    A1F : 11110001;
    A20 : 11110010;
    A21 : 11110010;
    A22 : 11110001;
    A23 : 11110001;
    A24 : 11110010;
    A25 : 11110010;
    A26 : 11110010;
    A27 : 11110010;
    A28 : 11110010;
    A29 : 11110010;
    A2A : 11110010;
    A2B : 11110010;
    A2C : 11110010;
    A2D : 11110010;
    A2E : 11110010;
    A2F : 11110010;
    A30 : 11110001;
    A31 : 11110010;
    A32 : 11110010;
    A33 : 11110010;
    A34 : 11110001;
    A35 : 11110001;
    A36 : 11110001;
    A37 : 11110001;
    A38 : 11110001;
    A39 : 11110001;
    A3A : 11110001;
    A3B : 11110001;
    A3C : 11110001;
    A3D : 11110000;
    A3E : 11110000;
    A3F : 11110000;
    A40 : 11110000;
    A41 : 11110000;
    A42 : 11110000;
    A43 : 11101111;
    A44 : 11110000;
    A45 : 11110000;
    A46 : 11110000;
    A47 : 11110000;
    A48 : 11101110;
    A49 : 11110000;
    A4A : 11101111;
    A4B : 11101111;
    A4C : 11101111;
    A4D : 11101111;
    A4E : 11101111;
    A4F : 11101111;
    A50 : 11101110;
    A51 : 11101111;
    A52 : 11101111;
    A53 : 11101111;
    A54 : 11101110;
    A55 : 11101111;
    A56 : 11101110;
    A57 : 11101101;
    A58 : 11101101;
    A59 : 11101100;
    A5A : 11101100;
    A5B : 11101010;
    A5C : 11101001;
    A5D : 11101001;
    A5E : 11101010;
    A5F : 11101010;
    A60 : 11101001;
    A61 : 11101001;
    A62 : 11101001;
    A63 : 11101010;
    A64 : 11101001;
    A65 : 11101000;
    A66 : 11100111;
    A67 : 11100110;
    A68 : 11100101;
    A69 : 11100101;
    A6A : 11100001;
    A6B : 11100000;
    A6C : 11011100;
    A6D : 11011001;
    A6E : 11010110;
    A6F : 11010101;
    A70 : 11010101;
    A71 : 11010110;
    A72 : 11010110;
    A73 : 11010111;
    A74 : 11011000;
    A75 : 11011000;
    A76 : 11011000;
    A77 : 11010111;
    A78 : 11011001;
    A79 : 11011000;
    A7A : 11011000;
    A7B : 11011000;
    A7C : 11010111;
    A7D : 11011000;
    A7E : 11010111;
    A7F : 11010111;
    A80 : 11011000;
    A81 : 11010111;
    A82 : 11010111;
    A83 : 11010111;
    A84 : 11011000;
    A85 : 11010110;
    A86 : 11010111;
    A87 : 11010111;
    A88 : 11010111;
    A89 : 11010111;
    A8A : 11010111;
    A8B : 11010111;
    A8C : 11010111;
    A8D : 11010111;
    A8E : 11010111;
    A8F : 11011001;
    A90 : 11010111;
    A91 : 11010111;
    A92 : 11010111;
    A93 : 11010111;
    A94 : 11010111;
    A95 : 11010111;
    A96 : 11010101;
    A97 : 11010111;
    A98 : 11010110;
    A99 : 11010110;
    A9A : 11010101;
    A9B : 11010111;
    A9C : 11010111;
    A9D : 11010101;
    A9E : 11010111;
    A9F : 11010110;
    AA0 : 11010110;
    AA1 : 11010110;
    AA2 : 11010110;
    AA3 : 11010101;
    AA4 : 11010101;
    AA5 : 11010101;
    AA6 : 11010101;
    AA7 : 11010101;
    AA8 : 11010101;
    AA9 : 11010101;
    AAA : 11010101;
    AAB : 11010101;
    AAC : 11010101;
    AAD : 11010101;
    AAE : 11010101;
    AAF : 11010101;
    AB0 : 11010110;
    AB1 : 11010110;
    AB2 : 11010101;
    AB3 : 11010101;
    AB4 : 11010101;
    AB5 : 11010101;
    AB6 : 11010100;
    AB7 : 11010100;
    AB8 : 11010110;
    AB9 : 11010110;
    ABA : 11010101;
    ABB : 11010101;
    ABC : 11010101;
    ABD : 11010101;
    ABE : 11010110;
    ABF : 11010110;
    AC0 : 11010101;
    AC1 : 11010101;
    AC2 : 11010110;
    AC3 : 11010110;
    AC4 : 11010110;
    AC5 : 11010100;
    AC6 : 11010110;
    AC7 : 11010100;
    AC8 : 11010101;
    AC9 : 11010101;
    ACA : 11010100;
    ACB : 11010101;
    ACC : 11010101;
    ACD : 11010110;
    ACE : 11010101;
    ACF : 11010101;
    AD0 : 11010110;
    AD1 : 11010101;
    AD2 : 11010110;
    AD3 : 11010101;
    AD4 : 11010101;
    AD5 : 11010101;
    AD6 : 11010101;
    AD7 : 11010101;
    AD8 : 11010101;
    AD9 : 11010101;
    ADA : 11010101;
    ADB : 11010101;
    ADC : 11010110;
    ADD : 11010100;
    ADE : 11010101;
    ADF : 11010101;
    AE0 : 11010110;
    AE1 : 11010110;
    AE2 : 11010101;
    AE3 : 11010100;
    AE4 : 11010110;
    AE5 : 11010101;
    AE6 : 11010101;
    AE7 : 11010101;
    AE8 : 11010101;
    AE9 : 11010110;
    AEA : 11010101;
    AEB : 11010101;
    AEC : 11010100;
    AED : 11010101;
    AEE : 11010101;
    AEF : 11010101;
    AF0 : 11010110;
    AF1 : 11010101;
    AF2 : 11010101;
    AF3 : 11010101;
    AF4 : 11010101;
    AF5 : 11010101;
    AF6 : 11010101;
    AF7 : 11010101;
    AF8 : 11010101;
    AF9 : 11010110;
    AFA : 11010110;
    AFB : 11010110;
    AFC : 11010101;
    AFD : 11010110;
    AFE : 11010110;
    AFF : 11010110;
    B00 : 11010110;
    B01 : 11010101;
    B02 : 11010110;
    B03 : 11010101;
    B04 : 11010101;
    B05 : 11010100;
    B06 : 11010100;
    B07 : 11010101;
    B08 : 11010101;
    B09 : 11010101;
    B0A : 11010110;
    B0B : 11010101;
    B0C : 11010110;
    B0D : 11010101;
    B0E : 11010101;
    B0F : 11010110;
    B10 : 11010101;
    B11 : 11010101;
    B12 : 11010101;
    B13 : 11010101;
    B14 : 11010101;
    B15 : 11010101;
    B16 : 11010101;
    B17 : 11010101;
    B18 : 11010100;
    B19 : 11010101;
    B1A : 11010101;
    B1B : 11010100;
    B1C : 11010100;
    B1D : 11010101;
    B1E : 11010101;
    B1F : 11010110;
    B20 : 11010101;
    B21 : 11010101;
    B22 : 11010101;
    B23 : 11010101;
    B24 : 11010101;
    B25 : 11010101;
    B26 : 11010101;
    B27 : 11010100;
    B28 : 11010101;
    B29 : 11010101;
    B2A : 11010101;
    B2B : 11010101;
    B2C : 11010101;
    B2D : 11010101;
    B2E : 11010101;
    B2F : 11010110;
    B30 : 11010110;
    B31 : 11010101;
    B32 : 11010101;
    B33 : 11010101;
    B34 : 11010101;
    B35 : 11010100;
    B36 : 11010101;
    B37 : 11010110;
    B38 : 11010101;
    B39 : 11010101;
    B3A : 11010101;
    B3B : 11010101;
    B3C : 11010110;
    B3D : 11010101;
    B3E : 11010101;
    B3F : 11010101;
    B40 : 11101111;
    B41 : 11101111;
    B42 : 11101111;
    B43 : 11101111;
    B44 : 11110000;
    B45 : 11101111;
    B46 : 11101111;
    B47 : 11101111;
    B48 : 11101111;
    B49 : 11101111;
    B4A : 11101111;
    B4B : 11101111;
    B4C : 11101111;
    B4D : 11110000;
    B4E : 11101111;
    B4F : 11101111;
    B50 : 11101111;
    B51 : 11101111;
    B52 : 11101111;
    B53 : 11110001;
    B54 : 11110001;
    B55 : 11110001;
    B56 : 11110001;
    B57 : 11110001;
    B58 : 11110001;
    B59 : 11110010;
    B5A : 11110010;
    B5B : 11110010;
    B5C : 11110010;
    B5D : 11110010;
    B5E : 11110010;
    B5F : 11110010;
    B60 : 11110010;
    B61 : 11110010;
    B62 : 11110010;
    B63 : 11110010;
    B64 : 11110010;
    B65 : 11110010;
    B66 : 11110010;
    B67 : 11110010;
    B68 : 11110010;
    B69 : 11110010;
    B6A : 11110010;
    B6B : 11110010;
    B6C : 11110010;
    B6D : 11110010;
    B6E : 11110010;
    B6F : 11110010;
    B70 : 11110000;
    B71 : 11110000;
    B72 : 11110001;
    B73 : 11110010;
    B74 : 11110001;
    B75 : 11110001;
    B76 : 11110001;
    B77 : 11110001;
    B78 : 11110001;
    B79 : 11110001;
    B7A : 11110001;
    B7B : 11110001;
    B7C : 11110000;
    B7D : 11110000;
    B7E : 11110000;
    B7F : 11110000;
    B80 : 11110000;
    B81 : 11110000;
    B82 : 11101111;
    B83 : 11101110;
    B84 : 11101111;
    B85 : 11101111;
    B86 : 11110000;
    B87 : 11101111;
    B88 : 11101110;
    B89 : 11110000;
    B8A : 11110000;
    B8B : 11101111;
    B8C : 11101111;
    B8D : 11101111;
    B8E : 11101111;
    B8F : 11101111;
    B90 : 11101110;
    B91 : 11101111;
    B92 : 11101110;
    B93 : 11110000;
    B94 : 11101110;
    B95 : 11101110;
    B96 : 11101111;
    B97 : 11101101;
    B98 : 11101111;
    B99 : 11101110;
    B9A : 11101011;
    B9B : 11101010;
    B9C : 11101001;
    B9D : 11101001;
    B9E : 11101010;
    B9F : 11101000;
    BA0 : 11101000;
    BA1 : 11101000;
    BA2 : 11101000;
    BA3 : 11101001;
    BA4 : 11101000;
    BA5 : 11101000;
    BA6 : 11100111;
    BA7 : 11100110;
    BA8 : 11100110;
    BA9 : 11100110;
    BAA : 11100100;
    BAB : 11100010;
    BAC : 11100010;
    BAD : 11011101;
    BAE : 11011010;
    BAF : 11011000;
    BB0 : 11010111;
    BB1 : 11010110;
    BB2 : 11010110;
    BB3 : 11010111;
    BB4 : 11010111;
    BB5 : 11010111;
    BB6 : 11010111;
    BB7 : 11010111;
    BB8 : 11010111;
    BB9 : 11010111;
    BBA : 11010111;
    BBB : 11010111;
    BBC : 11011000;
    BBD : 11011000;
    BBE : 11011000;
    BBF : 11010110;
    BC0 : 11010111;
    BC1 : 11010111;
    BC2 : 11010111;
    BC3 : 11010111;
    BC4 : 11010111;
    BC5 : 11010111;
    BC6 : 11010110;
    BC7 : 11011000;
    BC8 : 11010111;
    BC9 : 11010111;
    BCA : 11011000;
    BCB : 11011000;
    BCC : 11010111;
    BCD : 11010111;
    BCE : 11011000;
    BCF : 11011000;
    BD0 : 11011000;
    BD1 : 11010110;
    BD2 : 11010111;
    BD3 : 11010111;
    BD4 : 11010111;
    BD5 : 11010111;
    BD6 : 11010110;
    BD7 : 11010110;
    BD8 : 11010111;
    BD9 : 11010110;
    BDA : 11010101;
    BDB : 11010110;
    BDC : 11010110;
    BDD : 11010101;
    BDE : 11010110;
    BDF : 11010101;
    BE0 : 11010101;
    BE1 : 11010101;
    BE2 : 11010110;
    BE3 : 11010101;
    BE4 : 11010110;
    BE5 : 11010101;
    BE6 : 11010101;
    BE7 : 11010101;
    BE8 : 11010101;
    BE9 : 11010101;
    BEA : 11010101;
    BEB : 11010101;
    BEC : 11010101;
    BED : 11010101;
    BEE : 11010100;
    BEF : 11010101;
    BF0 : 11010110;
    BF1 : 11010110;
    BF2 : 11010101;
    BF3 : 11010110;
    BF4 : 11010100;
    BF5 : 11010100;
    BF6 : 11010100;
    BF7 : 11010101;
    BF8 : 11010101;
    BF9 : 11010101;
    BFA : 11010101;
    BFB : 11010101;
    BFC : 11010110;
    BFD : 11010101;
    BFE : 11010101;
    BFF : 11010101;
    C00 : 11010110;
    C01 : 11010110;
    C02 : 11010110;
    C03 : 11010110;
    C04 : 11010110;
    C05 : 11010111;
    C06 : 11010101;
    C07 : 11010100;
    C08 : 11010101;
    C09 : 11010101;
    C0A : 11010101;
    C0B : 11010100;
    C0C : 11010101;
    C0D : 11010101;
    C0E : 11010101;
    C0F : 11010101;
    C10 : 11010101;
    C11 : 11010110;
    C12 : 11010110;
    C13 : 11010101;
    C14 : 11010101;
    C15 : 11010101;
    C16 : 11010110;
    C17 : 11010110;
    C18 : 11010101;
    C19 : 11010101;
    C1A : 11010101;
    C1B : 11010101;
    C1C : 11010110;
    C1D : 11010101;
    C1E : 11010101;
    C1F : 11010101;
    C20 : 11010101;
    C21 : 11010110;
    C22 : 11010100;
    C23 : 11010101;
    C24 : 11010101;
    C25 : 11010100;
    C26 : 11010101;
    C27 : 11010101;
    C28 : 11010101;
    C29 : 11010110;
    C2A : 11010101;
    C2B : 11010101;
    C2C : 11010110;
    C2D : 11010101;
    C2E : 11010101;
    C2F : 11010101;
    C30 : 11010100;
    C31 : 11010110;
    C32 : 11010101;
    C33 : 11010101;
    C34 : 11010101;
    C35 : 11010101;
    C36 : 11010101;
    C37 : 11010101;
    C38 : 11010101;
    C39 : 11010101;
    C3A : 11010101;
    C3B : 11010101;
    C3C : 11010101;
    C3D : 11010110;
    C3E : 11010101;
    C3F : 11010110;
    C40 : 11010110;
    C41 : 11010101;
    C42 : 11010110;
    C43 : 11010100;
    C44 : 11010101;
    C45 : 11010110;
    C46 : 11010110;
    C47 : 11010101;
    C48 : 11010110;
    C49 : 11010101;
    C4A : 11010101;
    C4B : 11010101;
    C4C : 11010110;
    C4D : 11010101;
    C4E : 11010110;
    C4F : 11010101;
    C50 : 11010101;
    C51 : 11010101;
    C52 : 11010110;
    C53 : 11010110;
    C54 : 11010101;
    C55 : 11010101;
    C56 : 11010101;
    C57 : 11010101;
    C58 : 11010110;
    C59 : 11010101;
    C5A : 11010110;
    C5B : 11010101;
    C5C : 11010101;
    C5D : 11010101;
    C5E : 11010101;
    C5F : 11010110;
    C60 : 11010110;
    C61 : 11010101;
    C62 : 11010110;
    C63 : 11010101;
    C64 : 11010101;
    C65 : 11010101;
    C66 : 11010101;
    C67 : 11010101;
    C68 : 11010101;
    C69 : 11010101;
    C6A : 11010101;
    C6B : 11010101;
    C6C : 11010101;
    C6D : 11010101;
    C6E : 11010101;
    C6F : 11010101;
    C70 : 11010101;
    C71 : 11010101;
    C72 : 11010101;
    C73 : 11010101;
    C74 : 11010110;
    C75 : 11010101;
    C76 : 11010100;
    C77 : 11010110;
    C78 : 11010110;
    C79 : 11010110;
    C7A : 11010101;
    C7B : 11010100;
    C7C : 11010110;
    C7D : 11010100;
    C7E : 11010101;
    C7F : 11010101;
    C80 : 11101111;
    C81 : 11101111;
    C82 : 11110000;
    C83 : 11110000;
    C84 : 11101111;
    C85 : 11101111;
    C86 : 11101111;
    C87 : 11110000;
    C88 : 11101111;
    C89 : 11101111;
    C8A : 11101111;
    C8B : 11101111;
    C8C : 11101111;
    C8D : 11110000;
    C8E : 11110000;
    C8F : 11110000;
    C90 : 11110000;
    C91 : 11110000;
    C92 : 11101111;
    C93 : 11110001;
    C94 : 11110000;
    C95 : 11110000;
    C96 : 11110000;
    C97 : 11110000;
    C98 : 11110001;
    C99 : 11110001;
    C9A : 11110001;
    C9B : 11110010;
    C9C : 11110010;
    C9D : 11110010;
    C9E : 11110010;
    C9F : 11110010;
    CA0 : 11110001;
    CA1 : 11110001;
    CA2 : 11110001;
    CA3 : 11110001;
    CA4 : 11110001;
    CA5 : 11110010;
    CA6 : 11110010;
    CA7 : 11110010;
    CA8 : 11110010;
    CA9 : 11110001;
    CAA : 11110010;
    CAB : 11110010;
    CAC : 11110010;
    CAD : 11110001;
    CAE : 11110001;
    CAF : 11110001;
    CB0 : 11110010;
    CB1 : 11110010;
    CB2 : 11110010;
    CB3 : 11110010;
    CB4 : 11110010;
    CB5 : 11110010;
    CB6 : 11110001;
    CB7 : 11110001;
    CB8 : 11110001;
    CB9 : 11110001;
    CBA : 11110000;
    CBB : 11110000;
    CBC : 11110000;
    CBD : 11110000;
    CBE : 11110000;
    CBF : 11110000;
    CC0 : 11110000;
    CC1 : 11110000;
    CC2 : 11110000;
    CC3 : 11110000;
    CC4 : 11110000;
    CC5 : 11101111;
    CC6 : 11110000;
    CC7 : 11101111;
    CC8 : 11101110;
    CC9 : 11101111;
    CCA : 11110000;
    CCB : 11101111;
    CCC : 11110000;
    CCD : 11101110;
    CCE : 11101111;
    CCF : 11101110;
    CD0 : 11101110;
    CD1 : 11101110;
    CD2 : 11101111;
    CD3 : 11101111;
    CD4 : 11101111;
    CD5 : 11101110;
    CD6 : 11101111;
    CD7 : 11101101;
    CD8 : 11101110;
    CD9 : 11101110;
    CDA : 11101100;
    CDB : 11101011;
    CDC : 11101001;
    CDD : 11101001;
    CDE : 11101001;
    CDF : 11100111;
    CE0 : 11100111;
    CE1 : 11100111;
    CE2 : 11100110;
    CE3 : 11100110;
    CE4 : 11100111;
    CE5 : 11100111;
    CE6 : 11100111;
    CE7 : 11100110;
    CE8 : 11100101;
    CE9 : 11100100;
    CEA : 11100011;
    CEB : 11100010;
    CEC : 11100001;
    CED : 11011111;
    CEE : 11011100;
    CEF : 11011001;
    CF0 : 11010111;
    CF1 : 11010110;
    CF2 : 11010111;
    CF3 : 11010101;
    CF4 : 11010111;
    CF5 : 11010111;
    CF6 : 11010110;
    CF7 : 11010111;
    CF8 : 11010111;
    CF9 : 11010110;
    CFA : 11010110;
    CFB : 11010110;
    CFC : 11010110;
    CFD : 11010110;
    CFE : 11010111;
    CFF : 11010111;
    D00 : 11010110;
    D01 : 11010111;
    D02 : 11010111;
    D03 : 11010110;
    D04 : 11010110;
    D05 : 11010110;
    D06 : 11010111;
    D07 : 11010110;
    D08 : 11010111;
    D09 : 11010110;
    D0A : 11011000;
    D0B : 11010111;
    D0C : 11011000;
    D0D : 11010111;
    D0E : 11010111;
    D0F : 11010111;
    D10 : 11010110;
    D11 : 11010110;
    D12 : 11010110;
    D13 : 11010111;
    D14 : 11010110;
    D15 : 11010110;
    D16 : 11010111;
    D17 : 11010111;
    D18 : 11010110;
    D19 : 11010111;
    D1A : 11010110;
    D1B : 11010101;
    D1C : 11010101;
    D1D : 11010101;
    D1E : 11010110;
    D1F : 11010110;
    D20 : 11010101;
    D21 : 11010101;
    D22 : 11010110;
    D23 : 11010101;
    D24 : 11010110;
    D25 : 11010101;
    D26 : 11010100;
    D27 : 11010101;
    D28 : 11010101;
    D29 : 11010100;
    D2A : 11010101;
    D2B : 11010101;
    D2C : 11010101;
    D2D : 11010101;
    D2E : 11010110;
    D2F : 11010101;
    D30 : 11010100;
    D31 : 11010101;
    D32 : 11010101;
    D33 : 11010101;
    D34 : 11010101;
    D35 : 11010101;
    D36 : 11010101;
    D37 : 11010101;
    D38 : 11010101;
    D39 : 11010101;
    D3A : 11010101;
    D3B : 11010101;
    D3C : 11010101;
    D3D : 11010110;
    D3E : 11010101;
    D3F : 11010101;
    D40 : 11010101;
    D41 : 11010101;
    D42 : 11010101;
    D43 : 11010110;
    D44 : 11010101;
    D45 : 11010101;
    D46 : 11010101;
    D47 : 11010101;
    D48 : 11010101;
    D49 : 11010101;
    D4A : 11010101;
    D4B : 11010101;
    D4C : 11010101;
    D4D : 11010110;
    D4E : 11010101;
    D4F : 11010101;
    D50 : 11010101;
    D51 : 11010110;
    D52 : 11010101;
    D53 : 11010101;
    D54 : 11010101;
    D55 : 11010101;
    D56 : 11010100;
    D57 : 11010110;
    D58 : 11010101;
    D59 : 11010101;
    D5A : 11010101;
    D5B : 11010101;
    D5C : 11010101;
    D5D : 11010101;
    D5E : 11010101;
    D5F : 11010101;
    D60 : 11010101;
    D61 : 11010100;
    D62 : 11010101;
    D63 : 11010101;
    D64 : 11010101;
    D65 : 11010100;
    D66 : 11010101;
    D67 : 11010101;
    D68 : 11010100;
    D69 : 11010100;
    D6A : 11010101;
    D6B : 11010110;
    D6C : 11010110;
    D6D : 11010101;
    D6E : 11010101;
    D6F : 11010101;
    D70 : 11010101;
    D71 : 11010101;
    D72 : 11010101;
    D73 : 11010101;
    D74 : 11010101;
    D75 : 11010101;
    D76 : 11010101;
    D77 : 11010101;
    D78 : 11010101;
    D79 : 11010101;
    D7A : 11010110;
    D7B : 11010110;
    D7C : 11010101;
    D7D : 11010101;
    D7E : 11010100;
    D7F : 11010101;
    D80 : 11010101;
    D81 : 11010101;
    D82 : 11010101;
    D83 : 11010101;
    D84 : 11010101;
    D85 : 11010101;
    D86 : 11010101;
    D87 : 11010101;
    D88 : 11010101;
    D89 : 11010101;
    D8A : 11010101;
    D8B : 11010101;
    D8C : 11010101;
    D8D : 11010101;
    D8E : 11010101;
    D8F : 11010101;
    D90 : 11010110;
    D91 : 11010101;
    D92 : 11010101;
    D93 : 11010101;
    D94 : 11010101;
    D95 : 11010100;
    D96 : 11010101;
    D97 : 11010100;
    D98 : 11010101;
    D99 : 11010101;
    D9A : 11010101;
    D9B : 11010101;
    D9C : 11010110;
    D9D : 11010110;
    D9E : 11010101;
    D9F : 11010101;
    DA0 : 11010101;
    DA1 : 11010111;
    DA2 : 11010110;
    DA3 : 11010101;
    DA4 : 11010100;
    DA5 : 11010101;
    DA6 : 11010100;
    DA7 : 11010110;
    DA8 : 11010101;
    DA9 : 11010101;
    DAA : 11010101;
    DAB : 11010101;
    DAC : 11010101;
    DAD : 11010101;
    DAE : 11010101;
    DAF : 11010101;
    DB0 : 11010100;
    DB1 : 11010100;
    DB2 : 11010101;
    DB3 : 11010101;
    DB4 : 11010110;
    DB5 : 11010101;
    DB6 : 11010101;
    DB7 : 11010100;
    DB8 : 11010101;
    DB9 : 11010101;
    DBA : 11010101;
    DBB : 11010101;
    DBC : 11010101;
    DBD : 11010101;
    DBE : 11010101;
    DBF : 11010101;
    DC0 : 11101111;
    DC1 : 11101111;
    DC2 : 11110000;
    DC3 : 11110000;
    DC4 : 11101111;
    DC5 : 11101111;
    DC6 : 11101111;
    DC7 : 11110000;
    DC8 : 11110000;
    DC9 : 11110000;
    DCA : 11110000;
    DCB : 11110000;
    DCC : 11110000;
    DCD : 11110000;
    DCE : 11110000;
    DCF : 11110000;
    DD0 : 11110000;
    DD1 : 11110001;
    DD2 : 11110000;
    DD3 : 11110000;
    DD4 : 11110000;
    DD5 : 11110000;
    DD6 : 11110000;
    DD7 : 11110000;
    DD8 : 11110000;
    DD9 : 11110000;
    DDA : 11110000;
    DDB : 11110001;
    DDC : 11110001;
    DDD : 11110001;
    DDE : 11110001;
    DDF : 11110001;
    DE0 : 11110000;
    DE1 : 11110001;
    DE2 : 11110010;
    DE3 : 11110010;
    DE4 : 11110001;
    DE5 : 11110001;
    DE6 : 11110010;
    DE7 : 11110010;
    DE8 : 11110010;
    DE9 : 11110010;
    DEA : 11110010;
    DEB : 11110010;
    DEC : 11110010;
    DED : 11110010;
    DEE : 11110010;
    DEF : 11110010;
    DF0 : 11110010;
    DF1 : 11110010;
    DF2 : 11110010;
    DF3 : 11110010;
    DF4 : 11110010;
    DF5 : 11110010;
    DF6 : 11110001;
    DF7 : 11110001;
    DF8 : 11110001;
    DF9 : 11110000;
    DFA : 11110000;
    DFB : 11110000;
    DFC : 11110000;
    DFD : 11110000;
    DFE : 11110000;
    DFF : 11110000;
    E00 : 11110001;
    E01 : 11110001;
    E02 : 11110000;
    E03 : 11110000;
    E04 : 11110000;
    E05 : 11101111;
    E06 : 11110000;
    E07 : 11101111;
    E08 : 11110000;
    E09 : 11101111;
    E0A : 11101111;
    E0B : 11110000;
    E0C : 11101110;
    E0D : 11101110;
    E0E : 11101101;
    E0F : 11101101;
    E10 : 11101101;
    E11 : 11101101;
    E12 : 11101111;
    E13 : 11101111;
    E14 : 11101111;
    E15 : 11101111;
    E16 : 11101110;
    E17 : 11101110;
    E18 : 11101110;
    E19 : 11101110;
    E1A : 11101100;
    E1B : 11101011;
    E1C : 11101010;
    E1D : 11101000;
    E1E : 11100111;
    E1F : 11100101;
    E20 : 11100101;
    E21 : 11100011;
    E22 : 11100101;
    E23 : 11100101;
    E24 : 11100101;
    E25 : 11100110;
    E26 : 11100110;
    E27 : 11100101;
    E28 : 11100100;
    E29 : 11100100;
    E2A : 11100000;
    E2B : 11100001;
    E2C : 11100000;
    E2D : 11011111;
    E2E : 11011101;
    E2F : 11011011;
    E30 : 11011000;
    E31 : 11010111;
    E32 : 11010110;
    E33 : 11010110;
    E34 : 11010101;
    E35 : 11010111;
    E36 : 11010111;
    E37 : 11010110;
    E38 : 11010110;
    E39 : 11010111;
    E3A : 11010110;
    E3B : 11010110;
    E3C : 11010110;
    E3D : 11010110;
    E3E : 11010110;
    E3F : 11010110;
    E40 : 11010110;
    E41 : 11010110;
    E42 : 11010111;
    E43 : 11010110;
    E44 : 11011000;
    E45 : 11010111;
    E46 : 11010111;
    E47 : 11010110;
    E48 : 11011000;
    E49 : 11011000;
    E4A : 11010111;
    E4B : 11010110;
    E4C : 11010111;
    E4D : 11011000;
    E4E : 11011000;
    E4F : 11010111;
    E50 : 11010111;
    E51 : 11010111;
    E52 : 11010111;
    E53 : 11010111;
    E54 : 11011000;
    E55 : 11011000;
    E56 : 11010111;
    E57 : 11010111;
    E58 : 11010111;
    E59 : 11010110;
    E5A : 11010110;
    E5B : 11010110;
    E5C : 11010110;
    E5D : 11010110;
    E5E : 11010110;
    E5F : 11010101;
    E60 : 11010110;
    E61 : 11010110;
    E62 : 11010101;
    E63 : 11010110;
    E64 : 11010111;
    E65 : 11010101;
    E66 : 11010110;
    E67 : 11010101;
    E68 : 11010101;
    E69 : 11010100;
    E6A : 11010101;
    E6B : 11010101;
    E6C : 11010101;
    E6D : 11010101;
    E6E : 11010101;
    E6F : 11010110;
    E70 : 11010101;
    E71 : 11010101;
    E72 : 11010101;
    E73 : 11010101;
    E74 : 11010101;
    E75 : 11010101;
    E76 : 11010101;
    E77 : 11010101;
    E78 : 11010101;
    E79 : 11010101;
    E7A : 11010101;
    E7B : 11010101;
    E7C : 11010110;
    E7D : 11010110;
    E7E : 11010101;
    E7F : 11010101;
    E80 : 11010111;
    E81 : 11010101;
    E82 : 11010101;
    E83 : 11010101;
    E84 : 11010101;
    E85 : 11010101;
    E86 : 11010101;
    E87 : 11010101;
    E88 : 11010101;
    E89 : 11010101;
    E8A : 11010101;
    E8B : 11010101;
    E8C : 11010110;
    E8D : 11010101;
    E8E : 11010101;
    E8F : 11010101;
    E90 : 11010101;
    E91 : 11010101;
    E92 : 11010101;
    E93 : 11010101;
    E94 : 11010101;
    E95 : 11010101;
    E96 : 11010101;
    E97 : 11010110;
    E98 : 11010101;
    E99 : 11010101;
    E9A : 11010101;
    E9B : 11010110;
    E9C : 11010110;
    E9D : 11010101;
    E9E : 11010101;
    E9F : 11010101;
    EA0 : 11010101;
    EA1 : 11010101;
    EA2 : 11010101;
    EA3 : 11010110;
    EA4 : 11010110;
    EA5 : 11010100;
    EA6 : 11010110;
    EA7 : 11010110;
    EA8 : 11010101;
    EA9 : 11010100;
    EAA : 11010101;
    EAB : 11010101;
    EAC : 11010101;
    EAD : 11010110;
    EAE : 11010101;
    EAF : 11010101;
    EB0 : 11010101;
    EB1 : 11010101;
    EB2 : 11010101;
    EB3 : 11010101;
    EB4 : 11010110;
    EB5 : 11010101;
    EB6 : 11010101;
    EB7 : 11010101;
    EB8 : 11010101;
    EB9 : 11010101;
    EBA : 11010101;
    EBB : 11010101;
    EBC : 11010101;
    EBD : 11010101;
    EBE : 11010101;
    EBF : 11010110;
    EC0 : 11010101;
    EC1 : 11010110;
    EC2 : 11010101;
    EC3 : 11010101;
    EC4 : 11010101;
    EC5 : 11010110;
    EC6 : 11010110;
    EC7 : 11010110;
    EC8 : 11010101;
    EC9 : 11010101;
    ECA : 11010110;
    ECB : 11010110;
    ECC : 11010110;
    ECD : 11010101;
    ECE : 11010101;
    ECF : 11010101;
    ED0 : 11010101;
    ED1 : 11010101;
    ED2 : 11010101;
    ED3 : 11010110;
    ED4 : 11010110;
    ED5 : 11010101;
    ED6 : 11010101;
    ED7 : 11010110;
    ED8 : 11010110;
    ED9 : 11010100;
    EDA : 11010110;
    EDB : 11010110;
    EDC : 11010101;
    EDD : 11010110;
    EDE : 11010101;
    EDF : 11010101;
    EE0 : 11010101;
    EE1 : 11010100;
    EE2 : 11010101;
    EE3 : 11010110;
    EE4 : 11010101;
    EE5 : 11010101;
    EE6 : 11010101;
    EE7 : 11010101;
    EE8 : 11010101;
    EE9 : 11010101;
    EEA : 11010110;
    EEB : 11010101;
    EEC : 11010101;
    EED : 11010101;
    EEE : 11010101;
    EEF : 11010110;
    EF0 : 11010101;
    EF1 : 11010101;
    EF2 : 11010101;
    EF3 : 11010101;
    EF4 : 11010101;
    EF5 : 11010101;
    EF6 : 11010110;
    EF7 : 11010110;
    EF8 : 11010101;
    EF9 : 11010101;
    EFA : 11010101;
    EFB : 11010101;
    EFC : 11010110;
    EFD : 11010110;
    EFE : 11010101;
    EFF : 11010101;
    F00 : 11101111;
    F01 : 11110000;
    F02 : 11101111;
    F03 : 11110000;
    F04 : 11110000;
    F05 : 11101111;
    F06 : 11101111;
    F07 : 11110000;
    F08 : 11101111;
    F09 : 11110001;
    F0A : 11110000;
    F0B : 11110010;
    F0C : 11110000;
    F0D : 11101111;
    F0E : 11101111;
    F0F : 11110000;
    F10 : 11110000;
    F11 : 11110001;
    F12 : 11110001;
    F13 : 11110000;
    F14 : 11101111;
    F15 : 11110000;
    F16 : 11110000;
    F17 : 11110000;
    F18 : 11110000;
    F19 : 11110000;
    F1A : 11110000;
    F1B : 11110001;
    F1C : 11110000;
    F1D : 11110000;
    F1E : 11110000;
    F1F : 11110000;
    F20 : 11110000;
    F21 : 11110001;
    F22 : 11110010;
    F23 : 11110010;
    F24 : 11110010;
    F25 : 11110010;
    F26 : 11110010;
    F27 : 11110010;
    F28 : 11110010;
    F29 : 11110010;
    F2A : 11110010;
    F2B : 11110010;
    F2C : 11110010;
    F2D : 11110010;
    F2E : 11110010;
    F2F : 11110010;
    F30 : 11110000;
    F31 : 11110000;
    F32 : 11110000;
    F33 : 11110000;
    F34 : 11110000;
    F35 : 11110000;
    F36 : 11110000;
    F37 : 11110000;
    F38 : 11110000;
    F39 : 11110000;
    F3A : 11110000;
    F3B : 11101111;
    F3C : 11110000;
    F3D : 11110000;
    F3E : 11110000;
    F3F : 11110000;
    F40 : 11110000;
    F41 : 11110000;
    F42 : 11110000;
    F43 : 11110000;
    F44 : 11101111;
    F45 : 11110000;
    F46 : 11110000;
    F47 : 11110000;
    F48 : 11110000;
    F49 : 11110000;
    F4A : 11101111;
    F4B : 11101111;
    F4C : 11101110;
    F4D : 11101110;
    F4E : 11101110;
    F4F : 11101101;
    F50 : 11101101;
    F51 : 11101101;
    F52 : 11101101;
    F53 : 11101111;
    F54 : 11101111;
    F55 : 11101110;
    F56 : 11101101;
    F57 : 11101101;
    F58 : 11101101;
    F59 : 11101101;
    F5A : 11101100;
    F5B : 11101011;
    F5C : 11101001;
    F5D : 11100111;
    F5E : 11100100;
    F5F : 11100010;
    F60 : 11100011;
    F61 : 11100000;
    F62 : 11100001;
    F63 : 11100001;
    F64 : 11100010;
    F65 : 11100100;
    F66 : 11100100;
    F67 : 11100101;
    F68 : 11100011;
    F69 : 11100010;
    F6A : 11100000;
    F6B : 11011111;
    F6C : 11011111;
    F6D : 11011110;
    F6E : 11011101;
    F6F : 11011011;
    F70 : 11011010;
    F71 : 11011000;
    F72 : 11010110;
    F73 : 11010011;
    F74 : 11010111;
    F75 : 11010101;
    F76 : 11001100;
    F77 : 11001111;
    F78 : 11010000;
    F79 : 11010100;
    F7A : 11010100;
    F7B : 11010111;
    F7C : 11010111;
    F7D : 11010010;
    F7E : 11010000;
    F7F : 11001010;
    F80 : 11000110;
    F81 : 11001100;
    F82 : 11010001;
    F83 : 11010111;
    F84 : 11011000;
    F85 : 11010111;
    F86 : 11010100;
    F87 : 11010111;
    F88 : 11010111;
    F89 : 11010111;
    F8A : 11010110;
    F8B : 11010110;
    F8C : 11010110;
    F8D : 11010110;
    F8E : 11010111;
    F8F : 11010111;
    F90 : 11010111;
    F91 : 11010111;
    F92 : 11010111;
    F93 : 11010111;
    F94 : 11010111;
    F95 : 11010111;
    F96 : 11010110;
    F97 : 11010111;
    F98 : 11010111;
    F99 : 11010110;
    F9A : 11010110;
    F9B : 11010110;
    F9C : 11010110;
    F9D : 11010110;
    F9E : 11010110;
    F9F : 11010101;
    FA0 : 11010101;
    FA1 : 11010110;
    FA2 : 11010110;
    FA3 : 11010101;
    FA4 : 11010101;
    FA5 : 11010101;
    FA6 : 11010101;
    FA7 : 11010101;
    FA8 : 11010101;
    FA9 : 11010101;
[...]
    12874 : 11001101;
    12875 : 11000111;
    12876 : 00111100;
    12877 : 00100001;
    12878 : 00101110;
    12879 : 00110100;
    1287A : 01000011;
    1287B : 00111110;
    1287C : 00110001;
    1287D : 00011011;
    1287E : 00000100;
    1287F : 00011010;
    12880 : 00000111;
    12881 : 11000111;
    12882 : 10111100;
    12883 : 10110010;
    12884 : 10110000;
    12885 : 10101111;
    12886 : 10101110;
    12887 : 10101110;
    12888 : 10110001;
    12889 : 10110011;
    1288A : 00110111;
    1288B : 11100010;
    1288C : 11100110;
    1288D : 11100111;
    1288E : 11100110;
    1288F : 11100111;
    12890 : 11101000;
    12891 : 11101010;
    12892 : 11101100;
    12893 : 11101011;
    12894 : 11101100;
    12895 : 11101101;
    12896 : 11101101;
    12897 : 11101101;
    12898 : 11101101;
    12899 : 11101100;
    1289A : 11101100;
    1289B : 11101011;
    1289C : 11101001;
    1289D : 11100111;
    1289E : 11100101;
    1289F : 11100010;
    128A0 : 11100001;
    128A1 : 11011110;
    128A2 : 11011011;
    128A3 : 11011000;
    128A4 : 11010100;
    128A5 : 11001111;
    128A6 : 11001000;
    128A7 : 11000100;
    128A8 : 10111101;
    128A9 : 10110111;
    128AA : 10110001;
    128AB : 10101010;
    128AC : 10100001;
    128AD : 10011010;
    128AE : 10001111;
    128AF : 10000110;
    128B0 : 10000100;
    128B1 : 10100100;
    128B2 : 10111111;
    128B3 : 10000110;
    128B4 : 10000000;
    128B5 : 10000010;
    128B6 : 10001101;
    128B7 : 10110011;
    128B8 : 11000101;
    128B9 : 11001011;
    128BA : 11000110;
    128BB : 11000010;
    128BC : 10110101;
    128BD : 10101110;
    128BE : 10101101;
    128BF : 10111101;
    128C0 : 01100111;
    128C1 : 01100011;
    128C2 : 01111111;
    128C3 : 10010001;
    128C4 : 10010110;
    128C5 : 10011001;
    128C6 : 10011000;
    128C7 : 01011011;
    128C8 : 01010000;
    128C9 : 01001110;
    128CA : 01000111;
    128CB : 01000101;
    128CC : 00111100;
    128CD : 01011100;
    128CE : 10110001;
    128CF : 11000000;
    128D0 : 10111111;
    128D1 : 11000011;
    128D2 : 11000101;
    128D3 : 11000011;
    128D4 : 11000111;
    128D5 : 11001001;
    128D6 : 11001111;
    128D7 : 11010010;
    128D8 : 11010001;
    128D9 : 10011101;
    128DA : 00011100;
    128DB : 00010001;
    128DC : 00010010;
    128DD : 00011000;
    128DE : 00100100;
    128DF : 00101110;
    128E0 : 00110101;
    128E1 : 00111001;
    128E2 : 00101001;
    128E3 : 00100110;
    128E4 : 00100110;
    128E5 : 00101101;
    128E6 : 01001000;
    128E7 : 01011111;
    128E8 : 00111110;
    128E9 : 00011110;
    128EA : 00011100;
    128EB : 00101010;
    128EC : 00101101;
    128ED : 00011011;
    128EE : 00011100;
    128EF : 00100110;
    128F0 : 00011111;
    128F1 : 00000010;
    128F2 : 00000000;
    128F3 : 00000000;
    128F4 : 00000000;
    128F5 : 00000000;
    128F6 : 10010111;
    128F7 : 01110110;
    128F8 : 00111010;
    128F9 : 00010011;
    128FA : 00001010;
    128FB : 00000101;
    128FC : 00000111;
    128FD : 00001000;
    128FE : 00001011;
    128FF : 00001101;
    12900 : 00010010;
    12901 : 00010111;
    12902 : 00011100;
    12903 : 00011111;
    12904 : 00100101;
    12905 : 00101001;
    12906 : 00101101;
    12907 : 00110010;
    12908 : 00110101;
    12909 : 00111000;
    1290A : 00111011;
    1290B : 00111110;
    1290C : 01000000;
    1290D : 01010000;
    1290E : 01100000;
    1290F : 01101000;
    12910 : 00000001;
    12911 : 10110011;
    12912 : 10100101;
    12913 : 10100100;
    12914 : 10100111;
    12915 : 10110011;
    12916 : 11000000;
    12917 : 11000100;
    12918 : 11000110;
    12919 : 11000101;
    1291A : 11000000;
    1291B : 10110111;
    1291C : 10100010;
    1291D : 10010001;
    1291E : 01000110;
    1291F : 10101001;
    12920 : 10100000;
    12921 : 10100001;
    12922 : 10100001;
    12923 : 10100000;
    12924 : 10100001;
    12925 : 10100000;
    12926 : 10100000;
    12927 : 10100001;
    12928 : 10100001;
    12929 : 10100001;
    1292A : 10100010;
    1292B : 10100011;
    1292C : 10100011;
    1292D : 10100011;
    1292E : 10100011;
    1292F : 10100011;
    12930 : 10100100;
    12931 : 10100100;
    12932 : 10100011;
    12933 : 10100011;
    12934 : 10100100;
    12935 : 10100100;
    12936 : 10100011;
    12937 : 10100011;
    12938 : 10100010;
    12939 : 10100001;
    1293A : 10100010;
    1293B : 10100000;
    1293C : 10100000;
    1293D : 10100000;
    1293E : 10011111;
    1293F : 10011110;
    12940 : 10011101;
    12941 : 10011100;
    12942 : 10011011;
    12943 : 10011001;
    12944 : 10010101;
    12945 : 10010011;
    12946 : 10010000;
    12947 : 10010000;
    12948 : 10001100;
    12949 : 10001010;
    1294A : 10000111;
    1294B : 10000100;
    1294C : 10000000;
    1294D : 01111101;
    1294E : 01111010;
    1294F : 01111000;
    12950 : 01110110;
    12951 : 01110101;
    12952 : 01110101;
    12953 : 01110100;
    12954 : 01111010;
    12955 : 01111101;
    12956 : 10001000;
    12957 : 10001110;
    12958 : 10010000;
    12959 : 10010010;
    1295A : 10001111;
    1295B : 10001110;
    1295C : 10001100;
    1295D : 10001001;
    1295E : 10000111;
    1295F : 10000111;
    12960 : 10000100;
    12961 : 10000011;
    12962 : 10000000;
    12963 : 10000000;
    12964 : 01111110;
    12965 : 01111101;
    12966 : 01111100;
    12967 : 01111010;
    12968 : 01111000;
    12969 : 01110110;
    1296A : 01110110;
    1296B : 01110110;
    1296C : 01110110;
    1296D : 01110110;
    1296E : 01110111;
    1296F : 01110111;
    12970 : 01110101;
    12971 : 01110101;
    12972 : 01110101;
    12973 : 01110101;
    12974 : 01110100;
    12975 : 01110011;
    12976 : 01110000;
    12977 : 01110010;
    12978 : 01101111;
    12979 : 01101110;
    1297A : 01101100;
    1297B : 01101001;
    1297C : 01101000;
    1297D : 01100110;
    1297E : 01100011;
    1297F : 01100011;
    12980 : 11000110;
    12981 : 11001011;
    12982 : 11001111;
    12983 : 11010010;
    12984 : 11010101;
    12985 : 11011001;
    12986 : 11011000;
    12987 : 11011000;
    12988 : 11010101;
    12989 : 11011001;
    1298A : 11000011;
    1298B : 11000110;
    1298C : 11011010;
    1298D : 11011001;
    1298E : 11010101;
    1298F : 11000101;
    12990 : 11010100;
    12991 : 11010100;
    12992 : 11010101;
    12993 : 11010111;
    12994 : 11011000;
    12995 : 11011000;
    12996 : 11011000;
    12997 : 11011000;
    12998 : 11011001;
    12999 : 11011000;
    1299A : 11010110;
    1299B : 11011000;
    1299C : 11010110;
    1299D : 10000010;
    1299E : 10110101;
    1299F : 00000001;
    129A0 : 01010111;
    129A1 : 00101000;
    129A2 : 00001011;
    129A3 : 00001110;
    129A4 : 01011100;
    129A5 : 01101111;
    129A6 : 10010010;
    129A7 : 11001010;
    129A8 : 11000101;
    129A9 : 11001001;
    129AA : 11001001;
    129AB : 11001001;
    129AC : 11001001;
    129AD : 11001001;
    129AE : 11001100;
    129AF : 11001101;
    129B0 : 11001110;
    129B1 : 11001110;
    129B2 : 11001011;
    129B3 : 11001011;
    129B4 : 11001011;
    129B5 : 11000100;
    129B6 : 11001011;
    129B7 : 00001011;
    129B8 : 00101000;
    129B9 : 00111010;
    129BA : 00111110;
    129BB : 00111101;
    129BC : 00101101;
    129BD : 00010011;
    129BE : 00000010;
    129BF : 01001001;
    129C0 : 01010111;
    129C1 : 10110110;
    129C2 : 10110010;
    129C3 : 10110011;
    129C4 : 10110010;
    129C5 : 10110100;
    129C6 : 10110101;
    129C7 : 10110110;
    129C8 : 10110111;
    129C9 : 10111001;
    129CA : 10111111;
    129CB : 01110011;
    129CC : 11101111;
    129CD : 11100111;
    129CE : 11100110;
    129CF : 11100111;
    129D0 : 11101000;
    129D1 : 11101000;
    129D2 : 11101011;
    129D3 : 11101011;
    129D4 : 11101100;
    129D5 : 11101011;
    129D6 : 11101011;
    129D7 : 11101010;
    129D8 : 11101011;
    129D9 : 11101010;
    129DA : 11101000;
    129DB : 11100110;
    129DC : 11100101;
    129DD : 11100011;
    129DE : 11100001;
    129DF : 11011101;
    129E0 : 11011011;
    129E1 : 11011000;
    129E2 : 11010101;
    129E3 : 11010001;
    129E4 : 11001100;
    129E5 : 11000110;
    129E6 : 11000010;
    129E7 : 10111010;
    129E8 : 10110101;
    129E9 : 10101110;
    129EA : 10100111;
    129EB : 10011111;
    129EC : 10011001;
    129ED : 10001101;
    129EE : 10000011;
    129EF : 10001100;
    129F0 : 10100001;
    129F1 : 01111000;
    129F2 : 10001110;
    129F3 : 10000000;
    129F4 : 10000010;
    129F5 : 10000110;
    129F6 : 10011110;
    129F7 : 10111100;
    129F8 : 11000101;
    129F9 : 11000111;
    129FA : 11000110;
    129FB : 11000010;
    129FC : 10111010;
    129FD : 10110001;
    129FE : 10101110;
    129FF : 10110001;
    12A00 : 00100110;
    12A01 : 01101100;
    12A02 : 01110000;
    12A03 : 10000011;
    12A04 : 10001011;
    12A05 : 10010010;
    12A06 : 10010100;
    12A07 : 01011011;
    12A08 : 01001011;
    12A09 : 01001100;
    12A0A : 01000101;
    12A0B : 01000000;
    12A0C : 00111110;
    12A0D : 11000100;
    12A0E : 10111000;
    12A0F : 11000001;
    12A10 : 11000011;
    12A11 : 11000101;
    12A12 : 11000110;
    12A13 : 11000101;
    12A14 : 11001001;
    12A15 : 11001001;
    12A16 : 11000110;
    12A17 : 11010001;
    12A18 : 11100011;
    12A19 : 00000010;
    12A1A : 00011001;
    12A1B : 00010000;
    12A1C : 00010011;
    12A1D : 00011011;
    12A1E : 00101000;
    12A1F : 00110001;
    12A20 : 00111101;
    12A21 : 01000010;
    12A22 : 00110001;
    12A23 : 00101011;
    12A24 : 00101001;
    12A25 : 00101111;
    12A26 : 01001101;
    12A27 : 01100000;
    12A28 : 00111100;
    12A29 : 00100000;
    12A2A : 00011100;
    12A2B : 00101010;
    12A2C : 00101011;
    12A2D : 00011000;
    12A2E : 00011001;
    12A2F : 00100110;
    12A30 : 00011111;
    12A31 : 00000010;
    12A32 : 00000000;
    12A33 : 00000000;
    12A34 : 00000000;
    12A35 : 00000000;
    12A36 : 00000100;
    12A37 : 10001011;
    12A38 : 01011110;
    12A39 : 00100110;
    12A3A : 00001010;
    12A3B : 00000101;
    12A3C : 00000100;
    12A3D : 00000110;
    12A3E : 00001001;
    12A3F : 00001010;
    12A40 : 00001100;
    12A41 : 00010001;
    12A42 : 00010100;
    12A43 : 00011001;
    12A44 : 00011100;
    12A45 : 00100000;
    12A46 : 00100011;
    12A47 : 00101000;
    12A48 : 00101011;
    12A49 : 00101110;
    12A4A : 00110001;
    12A4B : 00110101;
    12A4C : 00111001;
    12A4D : 00111100;
    12A4E : 01010111;
    12A4F : 00000001;
    12A50 : 11010010;
    12A51 : 10110011;
    12A52 : 10101001;
    12A53 : 10011100;
    12A54 : 10100110;
    12A55 : 10110011;
    12A56 : 10111011;
    12A57 : 11000100;
    12A58 : 11000111;
    12A59 : 11000111;
    12A5A : 11000001;
    12A5B : 10111001;
    12A5C : 10100110;
    12A5D : 10011010;
    12A5E : 01111011;
    12A5F : 10100101;
    12A60 : 10100000;
    12A61 : 10100001;
    12A62 : 10100001;
    12A63 : 10100001;
    12A64 : 10011111;
    12A65 : 10100000;
    12A66 : 10100000;
    12A67 : 10100000;
    12A68 : 10100000;
    12A69 : 10100001;
    12A6A : 10100000;
    12A6B : 10100001;
    12A6C : 10100001;
    12A6D : 10100001;
    12A6E : 10100010;
    12A6F : 10100010;
    12A70 : 10100010;
    12A71 : 10100010;
    12A72 : 10100100;
    12A73 : 10100100;
    12A74 : 10100010;
    12A75 : 10100010;
    12A76 : 10100001;
    12A77 : 10100001;
    12A78 : 10100010;
    12A79 : 10100001;
    12A7A : 10100000;
    12A7B : 10011111;
    12A7C : 10011111;
    12A7D : 10011111;
    12A7E : 10011110;
    12A7F : 10011101;
    12A80 : 10011011;
    12A81 : 10011011;
    12A82 : 10010111;
    12A83 : 10010110;
    12A84 : 10010011;
    12A85 : 10010010;
    12A86 : 10001111;
    12A87 : 10001100;
    12A88 : 10001001;
    12A89 : 10000111;
    12A8A : 10000100;
    12A8B : 10000000;
    12A8C : 01111100;
    12A8D : 01111010;
    12A8E : 01110111;
    12A8F : 01110101;
    12A90 : 01110101;
    12A91 : 01110100;
    12A92 : 01110010;
    12A93 : 01110101;
    12A94 : 01111100;
    12A95 : 10000111;
    12A96 : 10010010;
    12A97 : 10010010;
    12A98 : 10010101;
    12A99 : 10010100;
    12A9A : 10010000;
    12A9B : 10001101;
    12A9C : 10001100;
    12A9D : 10001001;
    12A9E : 10000111;
    12A9F : 10000111;
    12AA0 : 10000100;
    12AA1 : 10000010;
    12AA2 : 10000001;
    12AA3 : 10000000;
    12AA4 : 01111110;
    12AA5 : 01111101;
    12AA6 : 01111100;
    12AA7 : 01111010;
    12AA8 : 01111001;
    12AA9 : 01111000;
    12AAA : 01110111;
    12AAB : 01110111;
    12AAC : 01110111;
    12AAD : 01111000;
    12AAE : 01111000;
    12AAF : 01111001;
    12AB0 : 01110111;
    12AB1 : 01110101;
    12AB2 : 01110101;
    12AB3 : 01110110;
    12AB4 : 01110100;
    12AB5 : 01110011;
    12AB6 : 01110001;
    12AB7 : 01110001;
    12AB8 : 01101111;
    12AB9 : 01101110;
    12ABA : 01101100;
    12ABB : 01101001;
    12ABC : 01101000;
    12ABD : 01100111;
    12ABE : 01100011;
    12ABF : 01100010;
    12AC0 : 10111000;
    12AC1 : 10110110;
    12AC2 : 10110110;
    12AC3 : 10111000;
    12AC4 : 10110111;
    12AC5 : 10111011;
    12AC6 : 11000100;
    12AC7 : 11010011;
    12AC8 : 11010101;
    12AC9 : 11000111;
    12ACA : 11010111;
    12ACB : 11010001;
    12ACC : 11010011;
    12ACD : 11010110;
    12ACE : 11011000;
    12ACF : 11011011;
    12AD0 : 11010011;
    12AD1 : 11010110;
    12AD2 : 11010100;
    12AD3 : 11010110;
    12AD4 : 11010110;
    12AD5 : 11010111;
    12AD6 : 11010110;
    12AD7 : 11010101;
    12AD8 : 11010100;
    12AD9 : 11010011;
    12ADA : 11010011;
    12ADB : 11010011;
    12ADC : 11010100;
    12ADD : 11100001;
    12ADE : 11011011;
    12ADF : 01100010;
    12AE0 : 00110011;
    12AE1 : 00010000;
    12AE2 : 00100000;
    12AE3 : 10010011;
    12AE4 : 00001111;
    12AE5 : 11010010;
    12AE6 : 11001001;
    12AE7 : 11001000;
    12AE8 : 11001010;
    12AE9 : 11001001;
    12AEA : 11001001;
    12AEB : 11001010;
    12AEC : 11001001;
    12AED : 11001001;
    12AEE : 11001100;
    12AEF : 11001101;
    12AF0 : 11001101;
    12AF1 : 11001110;
    12AF2 : 11001100;
    12AF3 : 11001010;
    12AF4 : 11001001;
    12AF5 : 11000110;
    12AF6 : 11000111;
    12AF7 : 00010110;
    12AF8 : 00101001;
    12AF9 : 00111101;
    12AFA : 00111010;
    12AFB : 00110101;
    12AFC : 00011101;
    12AFD : 00001010;
    12AFE : 00010111;
    12AFF : 10100101;
    12B00 : 11000100;
    12B01 : 10111001;
    12B02 : 10110100;
    12B03 : 10110111;
    12B04 : 10111011;
    12B05 : 10111110;
    12B06 : 11000000;
    12B07 : 11000010;
    12B08 : 11000011;
    12B09 : 11000001;
    12B0A : 11000010;
    12B0B : 11000000;
    12B0C : 01111001;
    12B0D : 11101001;
    12B0E : 11100110;
    12B0F : 11101000;
    12B10 : 11101000;
    12B11 : 11101000;
    12B12 : 11101001;
    12B13 : 11101001;
    12B14 : 11101011;
    12B15 : 11101010;
    12B16 : 11101001;
    12B17 : 11101000;
    12B18 : 11100111;
    12B19 : 11100101;
    12B1A : 11100100;
    12B1B : 11100011;
    12B1C : 11100010;
    12B1D : 11011111;
    12B1E : 11011100;
    12B1F : 11011000;
    12B20 : 11010110;
    12B21 : 11010011;
    12B22 : 11001111;
    12B23 : 11001011;
    12B24 : 11000101;
    12B25 : 11000000;
    12B26 : 10111001;
    12B27 : 10110011;
    12B28 : 10101110;
    12B29 : 10100111;
    12B2A : 10100010;
    12B2B : 10010111;
    12B2C : 10001101;
    12B2D : 10000011;
    12B2E : 10001100;
    12B2F : 10100111;
    12B30 : 01001011;
    12B31 : 10010000;
    12B32 : 10011101;
    12B33 : 01110000;
    12B34 : 01101100;
    12B35 : 10011000;
    12B36 : 10101110;
    12B37 : 10111000;
    12B38 : 10110110;
    12B39 : 10111101;
    12B3A : 11000000;
    12B3B : 10111110;
    12B3C : 10111010;
    12B3D : 10110001;
    12B3E : 10101001;
    12B3F : 10100110;
    12B40 : 11000001;
    12B41 : 01101101;
    12B42 : 01101001;
    12B43 : 01110010;
    12B44 : 01111100;
    12B45 : 10000011;
    12B46 : 10001000;
    12B47 : 01011011;
    12B48 : 01001100;
    12B49 : 01001001;
    12B4A : 01000011;
    12B4B : 00111001;
    12B4C : 01000010;
    12B4D : 10111010;
    12B4E : 10111100;
    12B4F : 10111101;
    12B50 : 11001111;
    12B51 : 11010100;
    12B52 : 11010100;
    12B53 : 10110111;
    12B54 : 01011000;
    12B55 : 10010001;
    12B56 : 11000011;
    12B57 : 10111011;
    12B58 : 00011100;
    12B59 : 00100011;
    12B5A : 00010001;
    12B5B : 00010011;
    12B5C : 00010101;
    12B5D : 00011111;
    12B5E : 00101101;
    12B5F : 00110110;
    12B60 : 01001001;
    12B61 : 01001010;
    12B62 : 00111010;
    12B63 : 00110110;
    12B64 : 00110011;
    12B65 : 00110011;
    12B66 : 01010011;
    12B67 : 01100000;
    12B68 : 00111010;
    12B69 : 00011100;
    12B6A : 00011110;
    12B6B : 00101010;
    12B6C : 00101010;
    12B6D : 00011000;
    12B6E : 00010110;
    12B6F : 00100101;
    12B70 : 00100010;
    12B71 : 00000001;
    12B72 : 00000000;
    12B73 : 00000000;
    12B74 : 00000000;
    12B75 : 00000000;
    12B76 : 00000000;
    12B77 : 10101100;
    12B78 : 01111011;
    12B79 : 01001110;
    12B7A : 00011010;
    12B7B : 00001011;
    12B7C : 00000100;
    12B7D : 00000100;
    12B7E : 00000100;
    12B7F : 00000110;
    12B80 : 00001001;
    12B81 : 00001011;
    12B82 : 00001011;
    12B83 : 00010000;
    12B84 : 00010011;
    12B85 : 00011000;
    12B86 : 00011101;
    12B87 : 00011101;
    12B88 : 00100000;
    12B89 : 00100001;
    12B8A : 00100110;
    12B8B : 00101000;
    12B8C : 00101100;
    12B8D : 00101110;
    12B8E : 00011010;
    12B8F : 11011001;
    12B90 : 11000001;
    12B91 : 10101000;
    12B92 : 10011101;
    12B93 : 10001111;
    12B94 : 10101001;
    12B95 : 10101111;
    12B96 : 10111000;
    12B97 : 11000001;
    12B98 : 11000111;
    12B99 : 11000111;
    12B9A : 11000101;
    12B9B : 10111111;
    12B9C : 10101000;
    12B9D : 10011111;
    12B9E : 10000101;
    12B9F : 10000011;
    12BA0 : 10100000;
    12BA1 : 10100001;
    12BA2 : 10100000;
    12BA3 : 10100000;
    12BA4 : 10100000;
    12BA5 : 10100000;
    12BA6 : 10100000;
    12BA7 : 10100000;
    12BA8 : 10100000;
    12BA9 : 10100000;
    12BAA : 10100000;
    12BAB : 10100001;
    12BAC : 10100001;
    12BAD : 10100001;
    12BAE : 10100001;
    12BAF : 10100001;
    12BB0 : 10100001;
    12BB1 : 10100001;
    12BB2 : 10100001;
    12BB3 : 10100000;
    12BB4 : 10100001;
    12BB5 : 10100001;
    12BB6 : 10100000;
    12BB7 : 10100000;
    12BB8 : 10100001;
    12BB9 : 10100000;
    12BBA : 10011111;
    12BBB : 10100000;
    12BBC : 10011111;
    12BBD : 10011110;
    12BBE : 10011110;
    12BBF : 10011011;
    12BC0 : 10011011;
    12BC1 : 10011000;
    12BC2 : 10010101;
    12BC3 : 10010100;
    12BC4 : 10010010;
    12BC5 : 10010000;
    12BC6 : 10001100;
    12BC7 : 10001000;
    12BC8 : 10000110;
    12BC9 : 10000011;
    12BCA : 01111111;
    12BCB : 01111101;
    12BCC : 01111010;
    12BCD : 01110111;
    12BCE : 01110100;
    12BCF : 01110100;
    12BD0 : 01110100;
    12BD1 : 01110100;
    12BD2 : 01110101;
    12BD3 : 01111100;
    12BD4 : 10001000;
    12BD5 : 10010001;
    12BD6 : 10010110;
    12BD7 : 10011000;
    12BD8 : 10010110;
    12BD9 : 10010011;
    12BDA : 10001111;
    12BDB : 10001101;
    12BDC : 10001011;
    12BDD : 10001001;
    12BDE : 10001000;
    12BDF : 10000110;
    12BE0 : 10000101;
    12BE1 : 10000100;
    12BE2 : 10000100;
    12BE3 : 10000000;
    12BE4 : 01111110;
    12BE5 : 01111101;
    12BE6 : 01111110;
    12BE7 : 01111011;
    12BE8 : 01111010;
    12BE9 : 01111010;
    12BEA : 01111001;
    12BEB : 01111000;
    12BEC : 01111001;
    12BED : 01111000;
    12BEE : 01111000;
    12BEF : 01111000;
    12BF0 : 01110111;
    12BF1 : 01110111;
    12BF2 : 01110110;
    12BF3 : 01110101;
    12BF4 : 01110100;
    12BF5 : 01110010;
    12BF6 : 01110001;
    12BF7 : 01110000;
    12BF8 : 01101111;
    12BF9 : 01101101;
    12BFA : 01101010;
    12BFB : 01101000;
    12BFC : 01100111;
    12BFD : 01100101;
    12BFE : 01100011;
    12BFF : 01100010;
END;
